  0
SECTION
  2
ENTITIES
999
DXF created from EnergyPlus
999
Program Version,EnergyPlus, Version 8.3.0-6d97d074ea, YMD=2017.09.25 02:56
999
Polygon Action,TRIANGULATE3DFACE
999
Color Scheme,Default
999
Text - True North
  0
TEXT
  8
1
  6
Continuous
 62
  3
 10
      -22.96553
 20
      -15.08952
 30
        0.10000
 40
 .25
  1
True North
 41
 0.0
  7
MONOTXT
210
0.0
220
0.0
230
1.0
999
Text - Building Title
  0
TEXT
  8
1
  6
Continuous
 62
  3
 10
      -25.96553
 20
      -19.08952
 30
        0.10000
 40
 .4
  1
Building - Building
 41
 0.0
  7
MONOTXT
210
0.0
220
0.0
230
1.0
999
North Arrow Stem
  0
3DFACE
  8
1
 62
  3
 10
      -21.96553
 20
      -15.08952
 30
        0.10000
 11
      -21.96553
 21
      -15.08952
 31
        0.00000
 12
      -21.96553
 22
      -18.08952
 32
        0.00000
 13
      -21.96553
 23
      -18.08952
 33
        0.10000
999
North Arrow Head 1
  0
3DFACE
  8
1
 62
  3
 10
      -21.96553
 20
      -15.08952
 30
        0.10000
 11
      -21.96553
 21
      -15.08952
 31
        0.00000
 12
      -22.46553
 22
      -15.95555
 32
        0.00000
 13
      -22.46553
 23
      -15.95555
 33
        0.10000
999
North Arrow Head 2
  0
3DFACE
  8
1
 62
  3
 10
      -21.96553
 20
      -15.08952
 30
        0.10000
 11
      -21.96553
 21
      -15.08952
 31
        0.00000
 12
      -21.46553
 22
      -15.95555
 32
        0.00000
 13
      -21.46553
 23
      -15.95555
 33
        0.10000
999
North Arrow Side 1
  0
3DFACE
  8
1
 62
  3
 10
      -22.46553
 20
      -13.58952
 30
        0.10000
 11
      -22.46553
 21
      -13.58952
 31
        0.00000
 12
      -22.46553
 22
      -14.58952
 32
        0.00000
 13
      -22.46553
 23
      -14.58952
 33
        0.10000
999
North Arrow Side 2
  0
3DFACE
  8
1
 62
  3
 10
      -22.46553
 20
      -13.58952
 30
        0.10000
 11
      -22.46553
 21
      -13.58952
 31
        0.00000
 12
      -21.46553
 22
      -14.58952
 32
        0.00000
 13
      -21.46553
 23
      -14.58952
 33
        0.10000
999
North Arrow Side 3
  0
3DFACE
  8
1
 62
  3
 10
      -21.46553
 20
      -13.58952
 30
        0.10000
 11
      -21.46553
 21
      -13.58952
 31
        0.00000
 12
      -21.46553
 22
      -14.58952
 32
        0.00000
 13
      -21.46553
 23
      -14.58952
 33
        0.10000
999
Zone Names
999
Zone=1:UNDERFLOOR_VOID_SPACE
999
Zone=2:ROOFS1
999
Zone=3:ROOFS2
999
Zone=4:ROOFS3
999
Zone=5:ROOFS0
999
Zone=6:ROOFS4
999
Zone=7:ROOFN0
999
Zone=8:ROOFN3
999
Zone=9:ROOFN1
999
Zone=10:ROOFN2
999
Zone=11:CORRINOR
999
Zone=12:KITCHEN
999
Zone=13:BAS
999
Zone=14:STAIRNCOM
999
Zone=15:CORRISOU
999
Zone=16:OFF-YUJIE
999
Zone=17:OFF-BAPP
999
Zone=18:OFF-WEILI
999
Zone=19:OFF-ZHIANG
999
Zone=20:OFF-NINA
999
Zone=21:OFF-VOLKER
999
Zone=22:OFF-ERICA
999
Zone=23:OFF-JAMES
999
Zone=24:OFF-VIVIAN
999
Zone=25:OFF-CHENLU
999
Zone=26:OFF-OMER
999
Zone=27:SMALLCONF
999
Zone=28:LARGECONF1
999
Zone=29:OFF-ANNIE
999
Zone=30:LARGECONF0
999
Zone=31:OFF-SUREKHA
999
Building Shading:IW - EASTSHADING1 - SURFACE 1 (1)
  0
3DFACE
  8
Building Shading
 62
195
 10
       22.90268
 20
       34.86790
 30
        4.12000
 11
       17.46489
 21
       14.57380
 31
        4.12000
 12
       16.49897
 22
       14.83262
 32
        4.12000
 13
       21.93676
 23
       35.12672
 33
        4.12000
999
Building Shading:Mir-IW - EASTSHADING1 - SURFACE 1 (1)
  0
3DFACE
  8
Building Shading
 62
195
 10
       21.93676
 20
       35.12672
 30
        4.12000
 11
       16.49897
 21
       14.83262
 31
        4.12000
 12
       17.46489
 22
       14.57380
 32
        4.12000
 13
       22.90268
 23
       34.86790
 33
        4.12000
999
Building Shading:IW - EASTSHADING0 - SURFACE 1 (2)
  0
3DFACE
  8
Building Shading
 62
195
 10
       10.77893
 20
       17.40057
 30
        4.12000
 11
        4.56468
 21
       -5.79131
 31
        4.12000
 12
        3.59876
 22
       -5.53249
 32
        4.12000
 13
        9.81300
 23
       17.65939
 33
        4.12000
999
Building Shading:Mir-IW - EASTSHADING0 - SURFACE 1 (2)
  0
3DFACE
  8
Building Shading
 62
195
 10
        9.81300
 20
       17.65939
 30
        4.12000
 11
        3.59876
 21
       -5.53249
 31
        4.12000
 12
        4.56468
 22
       -5.79131
 32
        4.12000
 13
       10.77893
 23
       17.40057
 33
        4.12000
999
Building Shading:IW - SOUTHSHADING0 - SURFACE 1 (3)
  0
3DFACE
  8
Building Shading
 62
195
 10
       16.75779
 20
       15.79854
 30
        4.12000
 11
       16.49897
 21
       14.83262
 31
        4.12000
 12
       10.52955
 22
       16.43212
 32
        4.12000
 13
       10.78837
 23
       17.39804
 33
        4.12000
999
Building Shading:Mir-IW - SOUTHSHADING0 - SURFACE 1 (3)
  0
3DFACE
  8
Building Shading
 62
195
 10
       10.78837
 20
       17.39804
 30
        4.12000
 11
       10.52955
 21
       16.43212
 31
        4.12000
 12
       16.49897
 22
       14.83262
 32
        4.12000
 13
       16.75779
 23
       15.79854
 33
        4.12000
999
Building Shading:IW - WESTSHADING0 - SURFACE 1 (4)
  0
3DFACE
  8
Building Shading
 62
195
 10
        4.72396
 20
       39.73887
 30
        4.12000
 11
       -6.66667
 21
       -2.77152
 31
        4.12000
 12
       -7.63259
 22
       -2.51270
 32
        4.12000
 13
        3.75803
 23
       39.99769
 33
        4.12000
999
Building Shading:Mir-IW - WESTSHADING0 - SURFACE 1 (4)
  0
3DFACE
  8
Building Shading
 62
195
 10
        3.75803
 20
       39.99769
 30
        4.12000
 11
       -7.63259
 21
       -2.51270
 31
        4.12000
 12
       -6.66667
 22
       -2.77152
 32
        4.12000
 13
        4.72396
 23
       39.73887
 33
        4.12000
999
Building Shading:IW - WESTWALKWAY0 - SURFACE 1 (5)
  0
3DFACE
  8
Building Shading
 62
195
 10
        4.72159
 20
       39.72916
 30
        1.02000
 11
       -6.66903
 21
       -2.78124
 31
        1.02000
 12
       -7.63496
 22
       -2.52242
 32
        1.02000
 13
        3.75567
 23
       39.98797
 33
        1.02000
999
Building Shading:Mir-IW - WESTWALKWAY0 - SURFACE 1 (5)
  0
3DFACE
  8
Building Shading
 62
195
 10
        3.75567
 20
       39.98797
 30
        1.02000
 11
       -7.63496
 21
       -2.52242
 31
        1.02000
 12
       -6.66903
 22
       -2.78124
 32
        1.02000
 13
        4.72159
 23
       39.72916
 33
        1.02000
999
Building Shading:IW - EASTWALKWAY0 - SURFACE 1 (6)
  0
3DFACE
  8
Building Shading
 62
195
 10
       10.77893
 20
       17.40057
 30
        1.02000
 11
        4.56468
 21
       -5.79131
 31
        1.02000
 12
        3.59876
 22
       -5.53249
 32
        1.02000
 13
        9.81300
 23
       17.65939
 33
        1.02000
999
Building Shading:Mir-IW - EASTWALKWAY0 - SURFACE 1 (6)
  0
3DFACE
  8
Building Shading
 62
195
 10
        9.81300
 20
       17.65939
 30
        1.02000
 11
        3.59876
 21
       -5.53249
 31
        1.02000
 12
        4.56468
 22
       -5.79131
 32
        1.02000
 13
       10.77893
 23
       17.40057
 33
        1.02000
999
Building Shading:IW - SOUTHWALKWAY0 - SURFACE 1 (7)
  0
3DFACE
  8
Building Shading
 62
195
 10
       16.75801
 20
       15.79848
 30
        1.02000
 11
       16.49919
 21
       14.83256
 31
        1.02000
 12
       10.52977
 22
       16.43206
 32
        1.02000
 13
       10.78859
 23
       17.39798
 33
        1.02000
999
Building Shading:Mir-IW - SOUTHWALKWAY0 - SURFACE 1 (7)
  0
3DFACE
  8
Building Shading
 62
195
 10
       10.78859
 20
       17.39798
 30
        1.02000
 11
       10.52977
 21
       16.43206
 31
        1.02000
 12
       16.49919
 22
       14.83256
 32
        1.02000
 13
       16.75801
 23
       15.79848
 33
        1.02000
999
Building Shading:IW - EASTWALKWAY1 - SURFACE 1 (8)
  0
3DFACE
  8
Building Shading
 62
195
 10
       22.90032
 20
       34.85818
 30
        1.02000
 11
       17.46253
 21
       14.56408
 31
        1.02000
 12
       16.49660
 22
       14.82290
 32
        1.02000
 13
       21.93439
 23
       35.11700
 33
        1.02000
999
Building Shading:Mir-IW - EASTWALKWAY1 - SURFACE 1 (8)
  0
3DFACE
  8
Building Shading
 62
195
 10
       21.93439
 20
       35.11700
 30
        1.02000
 11
       16.49660
 21
       14.82290
 31
        1.02000
 12
       17.46253
 22
       14.56408
 32
        1.02000
 13
       22.90032
 23
       34.85818
 33
        1.02000
999
Building Shading:IW - NORTHBALCONY - SURFACE 1 (9)
  0
3DFACE
  8
Building Shading
 62
195
 10
       17.31049
 20
       40.34800
 30
        1.02000
 11
       16.87049
 21
       38.70593
 31
        1.02000
 12
       15.90457
 22
       38.96475
 32
        1.02000
 13
       16.34456
 23
       40.60682
 33
        1.02000
999
Building Shading:Mir-IW - NORTHBALCONY - SURFACE 1 (9)
  0
3DFACE
  8
Building Shading
 62
195
 10
       16.34456
 20
       40.60682
 30
        1.02000
 11
       15.90457
 21
       38.96475
 31
        1.02000
 12
       16.87049
 22
       38.70593
 32
        1.02000
 13
       17.31049
 23
       40.34800
 33
        1.02000
999
Building Shading:IW - NORTHBALCONY - SURFACE 2 (10)
  0
3DFACE
  8
Building Shading
 62
195
 10
       15.31806
 20
       37.93498
 30
        1.02000
 11
       15.05833
 21
       36.96565
 31
        1.02000
 12
       13.32932
 22
       37.42894
 32
        1.02000
 13
       13.57859
 23
       38.40003
 33
        1.02000
999
Building Shading:Mir-IW - NORTHBALCONY - SURFACE 2 (10)
  0
3DFACE
  8
Building Shading
 62
195
 10
       13.57859
 20
       38.40003
 30
        1.02000
 11
       13.32932
 21
       37.42894
 31
        1.02000
 12
       15.05833
 22
       36.96565
 32
        1.02000
 13
       15.31806
 23
       37.93498
 33
        1.02000
999
Building Shading:IW - NORTHBALCONY - SURFACE 3 (11)
  0
3DFACE
  8
Building Shading
 62
195
 10
       15.90457
 20
       38.96475
 30
        1.02000
 11
       15.60850
 21
       37.85979
 31
        1.02000
 12
       15.31870
 22
       37.93738
 32
        1.02000
 13
       15.61479
 23
       39.04239
 33
        1.02000
999
Building Shading:Mir-IW - NORTHBALCONY - SURFACE 3 (11)
  0
3DFACE
  8
Building Shading
 62
195
 10
       15.61479
 20
       39.04239
 30
        1.02000
 11
       15.31870
 21
       37.93738
 31
        1.02000
 12
       15.60850
 22
       37.85979
 32
        1.02000
 13
       15.90457
 23
       38.96475
 33
        1.02000
999
Building Shading:IW - NORTHBALCONY - SURFACE 4 (12)
  0
3DFACE
  8
Building Shading
 62
195
 10
       15.61479
 20
       39.04239
 30
        1.02000
 11
       15.31806
 21
       37.93498
 31
        1.02000
 12
       13.28877
 22
       38.47751
 32
        1.02000
 13
       13.58581
 23
       39.58606
 33
        1.02000
999
Building Shading:Mir-IW - NORTHBALCONY - SURFACE 4 (12)
  0
3DFACE
  8
Building Shading
 62
195
 10
       13.58581
 20
       39.58606
 30
        1.02000
 11
       13.28877
 21
       38.47751
 31
        1.02000
 12
       15.31806
 22
       37.93498
 32
        1.02000
 13
       15.61479
 23
       39.04239
 33
        1.02000
999
Building Shading:IW - NORTHBALCONY - SURFACE 5 (13)
  0
3DFACE
  8
Building Shading
 62
195
 10
       16.34456
 20
       40.60682
 30
        1.02000
 11
       15.90457
 21
       38.96475
 31
        1.02000
 12
       12.61988
 22
       39.84487
 32
        1.02000
 13
       13.05987
 23
       41.48695
 33
        1.02000
999
Building Shading:Mir-IW - NORTHBALCONY - SURFACE 5 (13)
  0
3DFACE
  8
Building Shading
 62
195
 10
       13.05987
 20
       41.48695
 30
        1.02000
 11
       12.61988
 21
       39.84487
 31
        1.02000
 12
       15.90457
 22
       38.96475
 32
        1.02000
 13
       16.34456
 23
       40.60682
 33
        1.02000
999
Building Shading:IW - NORTHBALCONY - SURFACE 6 (14)
  0
3DFACE
  8
Building Shading
 62
195
 10
       13.05987
 20
       41.48695
 30
        1.12000
 11
       12.61988
 21
       39.84487
 31
        1.12000
 12
       13.58581
 22
       39.58606
 32
        1.12000
 13
       14.02580
 23
       41.22813
 33
        1.12000
999
Building Shading:Mir-IW - NORTHBALCONY - SURFACE 6 (14)
  0
3DFACE
  8
Building Shading
 62
195
 10
       14.02580
 20
       41.22813
 30
        1.12000
 11
       13.58581
 21
       39.58606
 31
        1.12000
 12
       12.61988
 22
       39.84487
 32
        1.12000
 13
       13.05987
 23
       41.48695
 33
        1.12000
999
Building Shading:IW - NORTHBALCONY - SURFACE 7 (15)
  0
3DFACE
  8
Building Shading
 62
195
 10
       14.02580
 20
       41.22813
 30
        1.12000
 11
       13.28877
 21
       38.47751
 31
        1.12000
 12
       13.57859
 22
       38.40003
 32
        1.12000
 13
       14.28661
 23
       41.15825
 33
        1.12000
999
Building Shading:Mir-IW - NORTHBALCONY - SURFACE 7 (15)
  0
3DFACE
  8
Building Shading
 62
195
 10
       14.28661
 20
       41.15825
 30
        1.12000
 11
       13.57859
 21
       38.40003
 31
        1.12000
 12
       13.28877
 22
       38.47751
 32
        1.12000
 13
       14.02580
 23
       41.22813
 33
        1.12000
999
Building Shading:IW - NORTHBALCONY - SURFACE 8 (16)
  0
3DFACE
  8
Building Shading
 62
195
 10
       13.57937
 20
       38.40303
 30
        1.12000
 11
       13.32932
 21
       37.42894
 31
        1.12000
 12
       15.05833
 22
       36.96565
 32
        1.12000
 13
       15.31870
 23
       37.93738
 33
        1.12000
999
Building Shading:Mir-IW - NORTHBALCONY - SURFACE 8 (16)
  0
3DFACE
  8
Building Shading
 62
195
 10
       15.31870
 20
       37.93738
 30
        1.12000
 11
       15.05833
 21
       36.96565
 31
        1.12000
 12
       13.32932
 22
       37.42894
 32
        1.12000
 13
       13.57937
 23
       38.40303
 33
        1.12000
999
Building Shading:IW - NORTHBALCONY - SURFACE 9 (17)
  0
3DFACE
  8
Building Shading
 62
195
 10
       13.86391
 20
       39.51154
 30
        1.12000
 11
       13.57937
 21
       38.40303
 31
        1.12000
 12
       15.60850
 22
       37.85979
 32
        1.12000
 13
       15.90457
 23
       38.96475
 33
        1.12000
999
Building Shading:Mir-IW - NORTHBALCONY - SURFACE 9 (17)
  0
3DFACE
  8
Building Shading
 62
195
 10
       15.90457
 20
       38.96475
 30
        1.12000
 11
       15.60850
 21
       37.85979
 31
        1.12000
 12
       13.57937
 22
       38.40303
 32
        1.12000
 13
       13.86391
 23
       39.51154
 33
        1.12000
999
Building Shading:IW - NORTHBALCONY - SURFACE 10 (18)
  0
3DFACE
  8
Building Shading
 62
195
 10
       14.28661
 20
       41.15825
 30
        1.12000
 11
       13.86391
 21
       39.51154
 31
        1.12000
 12
       16.87049
 22
       38.70593
 32
        1.12000
 13
       17.31049
 23
       40.34800
 33
        1.12000
999
Building Shading:Mir-IW - NORTHBALCONY - SURFACE 10 (18)
  0
3DFACE
  8
Building Shading
 62
195
 10
       17.31049
 20
       40.34800
 30
        1.12000
 11
       16.87049
 21
       38.70593
 31
        1.12000
 12
       13.86391
 22
       39.51154
 32
        1.12000
 13
       14.28661
 23
       41.15825
 33
        1.12000
999
Building Shading:IW - NORTHBALCONY - SURFACE 11 (19)
  0
3DFACE
  8
Building Shading
 62
195
 10
       15.60850
 20
       37.85979
 30
        1.12000
 11
       15.60850
 21
       37.85979
 31
        1.02000
 12
       15.90457
 22
       38.96475
 32
        1.02000
 13
       15.90457
 23
       38.96475
 33
        1.12000
999
Building Shading:Mir-IW - NORTHBALCONY - SURFACE 11 (19)
  0
3DFACE
  8
Building Shading
 62
195
 10
       15.90457
 20
       38.96475
 30
        1.12000
 11
       15.90457
 21
       38.96475
 31
        1.02000
 12
       15.60850
 22
       37.85979
 32
        1.02000
 13
       15.60850
 23
       37.85979
 33
        1.12000
999
Building Shading:IW - NORTHBALCONY - SURFACE 12 (20)
  0
3DFACE
  8
Building Shading
 62
195
 10
       15.90457
 20
       38.96475
 30
        1.12000
 11
       15.90457
 21
       38.96475
 31
        1.02000
 12
       16.87049
 22
       38.70593
 32
        1.02000
 13
       16.87049
 23
       38.70593
 33
        1.12000
999
Building Shading:Mir-IW - NORTHBALCONY - SURFACE 12 (20)
  0
3DFACE
  8
Building Shading
 62
195
 10
       16.87049
 20
       38.70593
 30
        1.12000
 11
       16.87049
 21
       38.70593
 31
        1.02000
 12
       15.90457
 22
       38.96475
 32
        1.02000
 13
       15.90457
 23
       38.96475
 33
        1.12000
999
Building Shading:IW - NORTHBALCONY - SURFACE 13 (21)
  0
3DFACE
  8
Building Shading
 62
195
 10
       16.87049
 20
       38.70593
 30
        1.12000
 11
       16.87049
 21
       38.70593
 31
        1.02000
 12
       17.31049
 22
       40.34800
 32
        1.02000
 13
       17.31049
 23
       40.34800
 33
        1.12000
999
Building Shading:Mir-IW - NORTHBALCONY - SURFACE 13 (21)
  0
3DFACE
  8
Building Shading
 62
195
 10
       17.31049
 20
       40.34800
 30
        1.12000
 11
       17.31049
 21
       40.34800
 31
        1.02000
 12
       16.87049
 22
       38.70593
 32
        1.02000
 13
       16.87049
 23
       38.70593
 33
        1.12000
999
Building Shading:IW - NORTHBALCONY - SURFACE 14 (22)
  0
3DFACE
  8
Building Shading
 62
195
 10
       17.31049
 20
       40.34800
 30
        1.12000
 11
       17.31049
 21
       40.34800
 31
        1.02000
 12
       13.05987
 22
       41.48695
 32
        1.02000
 13
       13.05987
 23
       41.48695
 33
        1.12000
999
Building Shading:Mir-IW - NORTHBALCONY - SURFACE 14 (22)
  0
3DFACE
  8
Building Shading
 62
195
 10
       13.05987
 20
       41.48695
 30
        1.12000
 11
       13.05987
 21
       41.48695
 31
        1.02000
 12
       17.31049
 22
       40.34800
 32
        1.02000
 13
       17.31049
 23
       40.34800
 33
        1.12000
999
Building Shading:IW - NORTHBALCONY - SURFACE 15 (23)
  0
3DFACE
  8
Building Shading
 62
195
 10
       13.05987
 20
       41.48695
 30
        1.12000
 11
       13.05987
 21
       41.48695
 31
        1.02000
 12
       12.61988
 22
       39.84487
 32
        1.02000
 13
       12.61988
 23
       39.84487
 33
        1.12000
999
Building Shading:Mir-IW - NORTHBALCONY - SURFACE 15 (23)
  0
3DFACE
  8
Building Shading
 62
195
 10
       12.61988
 20
       39.84487
 30
        1.12000
 11
       12.61988
 21
       39.84487
 31
        1.02000
 12
       13.05987
 22
       41.48695
 32
        1.02000
 13
       13.05987
 23
       41.48695
 33
        1.12000
999
Building Shading:IW - NORTHBALCONY - SURFACE 16 (24)
  0
3DFACE
  8
Building Shading
 62
195
 10
       12.61988
 20
       39.84487
 30
        1.12000
 11
       12.61988
 21
       39.84487
 31
        1.02000
 12
       13.58581
 22
       39.58606
 32
        1.02000
 13
       13.58581
 23
       39.58606
 33
        1.12000
999
Building Shading:Mir-IW - NORTHBALCONY - SURFACE 16 (24)
  0
3DFACE
  8
Building Shading
 62
195
 10
       13.58581
 20
       39.58606
 30
        1.12000
 11
       13.58581
 21
       39.58606
 31
        1.02000
 12
       12.61988
 22
       39.84487
 32
        1.02000
 13
       12.61988
 23
       39.84487
 33
        1.12000
999
Building Shading:IW - NORTHBALCONY - SURFACE 17 (25)
  0
3DFACE
  8
Building Shading
 62
195
 10
       13.58581
 20
       39.58606
 30
        1.12000
 11
       13.58581
 21
       39.58606
 31
        1.02000
 12
       13.28877
 22
       38.47751
 32
        1.02000
 13
       13.28877
 23
       38.47751
 33
        1.12000
999
Building Shading:Mir-IW - NORTHBALCONY - SURFACE 17 (25)
  0
3DFACE
  8
Building Shading
 62
195
 10
       13.28877
 20
       38.47751
 30
        1.12000
 11
       13.28877
 21
       38.47751
 31
        1.02000
 12
       13.58581
 22
       39.58606
 32
        1.02000
 13
       13.58581
 23
       39.58606
 33
        1.12000
999
Building Shading:IW - NORTHBALCONY - SURFACE 18 (26)
  0
3DFACE
  8
Building Shading
 62
195
 10
       13.28877
 20
       38.47751
 30
        1.12000
 11
       13.28877
 21
       38.47751
 31
        1.02000
 12
       13.57859
 22
       38.40003
 32
        1.02000
 13
       13.57859
 23
       38.40003
 33
        1.12000
999
Building Shading:Mir-IW - NORTHBALCONY - SURFACE 18 (26)
  0
3DFACE
  8
Building Shading
 62
195
 10
       13.57859
 20
       38.40003
 30
        1.12000
 11
       13.57859
 21
       38.40003
 31
        1.02000
 12
       13.28877
 22
       38.47751
 32
        1.02000
 13
       13.28877
 23
       38.47751
 33
        1.12000
999
Building Shading:IW - NORTHBALCONY - SURFACE 19 (27)
  0
3DFACE
  8
Building Shading
 62
195
 10
       13.57859
 20
       38.40003
 30
        1.12000
 11
       13.57859
 21
       38.40003
 31
        1.02000
 12
       13.32932
 22
       37.42894
 32
        1.02000
 13
       13.32932
 23
       37.42894
 33
        1.12000
999
Building Shading:Mir-IW - NORTHBALCONY - SURFACE 19 (27)
  0
3DFACE
  8
Building Shading
 62
195
 10
       13.32932
 20
       37.42894
 30
        1.12000
 11
       13.32932
 21
       37.42894
 31
        1.02000
 12
       13.57859
 22
       38.40003
 32
        1.02000
 13
       13.57859
 23
       38.40003
 33
        1.12000
999
Building Shading:IW - NORTHBALCONY - SURFACE 20 (28)
  0
3DFACE
  8
Building Shading
 62
195
 10
       13.32932
 20
       37.42894
 30
        1.12000
 11
       13.32932
 21
       37.42894
 31
        1.02000
 12
       15.05833
 22
       36.96565
 32
        1.02000
 13
       15.05833
 23
       36.96565
 33
        1.12000
999
Building Shading:Mir-IW - NORTHBALCONY - SURFACE 20 (28)
  0
3DFACE
  8
Building Shading
 62
195
 10
       15.05833
 20
       36.96565
 30
        1.12000
 11
       15.05833
 21
       36.96565
 31
        1.02000
 12
       13.32932
 22
       37.42894
 32
        1.02000
 13
       13.32932
 23
       37.42894
 33
        1.12000
999
Building Shading:IW - NORTHBALCONY - SURFACE 21 (29)
  0
3DFACE
  8
Building Shading
 62
195
 10
       15.05833
 20
       36.96565
 30
        1.12000
 11
       15.05833
 21
       36.96565
 31
        1.02000
 12
       15.31870
 22
       37.93738
 32
        1.02000
 13
       15.31870
 23
       37.93738
 33
        1.12000
999
Building Shading:Mir-IW - NORTHBALCONY - SURFACE 21 (29)
  0
3DFACE
  8
Building Shading
 62
195
 10
       15.31870
 20
       37.93738
 30
        1.12000
 11
       15.31870
 21
       37.93738
 31
        1.02000
 12
       15.05833
 22
       36.96565
 32
        1.02000
 13
       15.05833
 23
       36.96565
 33
        1.12000
999
Building Shading:IW - NORTHBALCONY - SURFACE 22 (30)
  0
3DFACE
  8
Building Shading
 62
195
 10
       15.31870
 20
       37.93738
 30
        1.12000
 11
       15.31870
 21
       37.93738
 31
        1.02000
 12
       15.60850
 22
       37.85979
 32
        1.02000
 13
       15.60850
 23
       37.85979
 33
        1.12000
999
Building Shading:Mir-IW - NORTHBALCONY - SURFACE 22 (30)
  0
3DFACE
  8
Building Shading
 62
195
 10
       15.60850
 20
       37.85979
 30
        1.12000
 11
       15.60850
 21
       37.85979
 31
        1.02000
 12
       15.31870
 22
       37.93738
 32
        1.02000
 13
       15.31870
 23
       37.93738
 33
        1.12000
999
Building Shading:IW - NORTHWALKWAY1 - SURFACE 1 (31)
  0
3DFACE
  8
Building Shading
 62
195
 10
       13.57859
 20
       38.40003
 30
        1.02000
 11
       13.32096
 21
       37.43635
 31
        1.02000
 12
        3.75700
 22
       39.99383
 32
        1.02000
 13
        4.01582
 23
       40.95976
 33
        1.02000
999
Building Shading:Mir-IW - NORTHWALKWAY1 - SURFACE 1 (31)
  0
3DFACE
  8
Building Shading
 62
195
 10
        4.01582
 20
       40.95976
 30
        1.02000
 11
        3.75700
 21
       39.99383
 31
        1.02000
 12
       13.32096
 22
       37.43635
 32
        1.02000
 13
       13.57859
 23
       38.40003
 33
        1.02000
999
Building Shading:IW - NORTHWALKWAY0 - SURFACE 2 (32)
  0
3DFACE
  8
Building Shading
 62
195
 10
       23.16046
 20
       35.83212
 30
        1.02000
 11
       22.90283
 21
       34.86844
 31
        1.02000
 12
       15.05833
 22
       36.96565
 32
        1.02000
 13
       15.31715
 23
       37.93158
 33
        1.02000
999
Building Shading:Mir-IW - NORTHWALKWAY0 - SURFACE 2 (32)
  0
3DFACE
  8
Building Shading
 62
195
 10
       15.31715
 20
       37.93158
 30
        1.02000
 11
       15.05833
 21
       36.96565
 31
        1.02000
 12
       22.90283
 22
       34.86844
 32
        1.02000
 13
       23.16046
 23
       35.83212
 33
        1.02000
999
Building Shading:IW - MMCHROOF - SURFACE 1 (33)
  0
3DFACE
  8
Building Shading
 62
195
 10
        2.69289
 20
       -8.91323
 30
        1.50000
 11
        2.69289
 21
       -8.91323
 31
      -15.00000
 12
       -9.50675
 22
       -5.64434
 32
      -15.00000
 13
       -9.50675
 23
       -5.64434
 33
        1.50000
999
Building Shading:Mir-IW - MMCHROOF - SURFACE 1 (33)
  0
3DFACE
  8
Building Shading
 62
195
 10
       -9.50675
 20
       -5.64434
 30
        1.50000
 11
       -9.50675
 21
       -5.64434
 31
      -15.00000
 12
        2.69289
 22
       -8.91323
 32
      -15.00000
 13
        2.69289
 23
       -8.91323
 33
        1.50000
999
Building Shading:IW - MMCHROOF - SURFACE 2 (34)
  0
3DFACE
  8
Building Shading
 62
195
 10
        0.23411
 20
      -18.08952
 30
        1.50000
 11
        0.23411
 21
      -18.08952
 31
      -15.00000
 12
        2.69289
 22
       -8.91323
 32
      -15.00000
 13
        2.69289
 23
       -8.91323
 33
        1.50000
999
Building Shading:Mir-IW - MMCHROOF - SURFACE 2 (34)
  0
3DFACE
  8
Building Shading
 62
195
 10
        2.69289
 20
       -8.91323
 30
        1.50000
 11
        2.69289
 21
       -8.91323
 31
      -15.00000
 12
        0.23411
 22
      -18.08952
 32
      -15.00000
 13
        0.23411
 23
      -18.08952
 33
        1.50000
999
Building Shading:IW - MMCHROOF - SURFACE 3 (35)
  0
3DFACE
  8
Building Shading
 62
195
 10
        2.69289
 20
       -8.91323
 30
      -15.00000
 11
        0.23411
 21
      -18.08952
 31
      -15.00000
 12
      -11.96553
 22
      -14.82064
 32
      -15.00000
 13
       -9.50675
 23
       -5.64434
 33
      -15.00000
999
Building Shading:Mir-IW - MMCHROOF - SURFACE 3 (35)
  0
3DFACE
  8
Building Shading
 62
195
 10
       -9.50675
 20
       -5.64434
 30
      -15.00000
 11
      -11.96553
 21
      -14.82064
 31
      -15.00000
 12
        0.23411
 22
      -18.08952
 32
      -15.00000
 13
        2.69289
 23
       -8.91323
 33
      -15.00000
999
Building Shading:IW - MMCHROOF - SURFACE 4 (36)
  0
3DFACE
  8
Building Shading
 62
195
 10
       -9.50675
 20
       -5.64434
 30
        1.50000
 11
       -9.50675
 21
       -5.64434
 31
      -15.00000
 12
      -11.96553
 22
      -14.82064
 32
      -15.00000
 13
      -11.96553
 23
      -14.82064
 33
        1.50000
999
Building Shading:Mir-IW - MMCHROOF - SURFACE 4 (36)
  0
3DFACE
  8
Building Shading
 62
195
 10
      -11.96553
 20
      -14.82064
 30
        1.50000
 11
      -11.96553
 21
      -14.82064
 31
      -15.00000
 12
       -9.50675
 22
       -5.64434
 32
      -15.00000
 13
       -9.50675
 23
       -5.64434
 33
        1.50000
999
Building Shading:IW - MMCHROOF - SURFACE 5 (37)
  0
3DFACE
  8
Building Shading
 62
195
 10
       -5.86571
 20
      -16.45508
 30
        5.62000
 11
        2.69289
 21
       -8.91323
 31
        1.50000
 12
       -9.50675
 22
       -5.64434
 32
        1.50000
 13
       -9.50675
 23
       -5.64434
 33
        1.50000
999
Building Shading:Mir-IW - MMCHROOF - SURFACE 5 (37)
  0
3DFACE
  8
Building Shading
 62
195
 10
       -9.50675
 20
       -5.64434
 30
        1.50000
 11
        2.69289
 21
       -8.91323
 31
        1.50000
 12
       -5.86571
 22
      -16.45508
 32
        5.62000
 13
       -5.86571
 23
      -16.45508
 33
        5.62000
999
Building Shading:IW - MMCHROOF - SURFACE 6 (38)
  0
3DFACE
  8
Building Shading
 62
195
 10
       -5.86571
 20
      -16.45508
 30
        5.62000
 11
       -9.50675
 21
       -5.64434
 31
        1.50000
 12
      -11.96553
 22
      -14.82064
 32
        1.50000
 13
      -11.96553
 23
      -14.82064
 33
        1.50000
999
Building Shading:Mir-IW - MMCHROOF - SURFACE 6 (38)
  0
3DFACE
  8
Building Shading
 62
195
 10
      -11.96553
 20
      -14.82064
 30
        1.50000
 11
       -9.50675
 21
       -5.64434
 31
        1.50000
 12
       -5.86571
 22
      -16.45508
 32
        5.62000
 13
       -5.86571
 23
      -16.45508
 33
        5.62000
999
Building Shading:IW - MMCHROOF - SURFACE 7 (39)
  0
3DFACE
  8
Building Shading
 62
195
 10
       -5.86571
 20
      -16.45508
 30
        5.62000
 11
        0.23411
 21
      -18.08952
 31
        1.50000
 12
        2.69289
 22
       -8.91323
 32
        1.50000
 13
        2.69289
 23
       -8.91323
 33
        1.50000
999
Building Shading:Mir-IW - MMCHROOF - SURFACE 7 (39)
  0
3DFACE
  8
Building Shading
 62
195
 10
        2.69289
 20
       -8.91323
 30
        1.50000
 11
        0.23411
 21
      -18.08952
 31
        1.50000
 12
       -5.86571
 22
      -16.45508
 32
        5.62000
 13
       -5.86571
 23
      -16.45508
 33
        5.62000
999
Building Shading:IW - MMCHROOF - SURFACE 8 (40)
  0
3DFACE
  8
Building Shading
 62
195
 10
      -11.96553
 20
      -14.82064
 30
        1.50000
 11
      -11.96553
 21
      -14.82064
 31
      -15.00000
 12
        0.23411
 22
      -18.08952
 32
      -15.00000
 13
        0.23411
 23
      -18.08952
 33
      -15.00000
  0
3DFACE
  8
Building Shading
 62
195
 10
        0.23411
 20
      -18.08952
 30
      -15.00000
 11
        0.23411
 21
      -18.08952
 31
        1.50000
 12
       -5.86571
 22
      -16.45508
 32
        5.62000
 13
       -5.86571
 23
      -16.45508
 33
        5.62000
  0
3DFACE
  8
Building Shading
 62
195
 10
      -11.96553
 20
      -14.82064
 30
        1.50000
 11
        0.23411
 21
      -18.08952
 31
      -15.00000
 12
       -5.86571
 22
      -16.45508
 32
        5.62000
 13
       -5.86571
 23
      -16.45508
 33
        5.62000
999
Building Shading:Mir-IW - MMCHROOF - SURFACE 8 (40)
  0
3DFACE
  8
Building Shading
 62
195
 10
       -5.86571
 20
      -16.45508
 30
        5.62000
 11
        0.23411
 21
      -18.08952
 31
        1.50000
 12
        0.23411
 22
      -18.08952
 32
      -15.00000
 13
        0.23411
 23
      -18.08952
 33
      -15.00000
  0
3DFACE
  8
Building Shading
 62
195
 10
       -5.86571
 20
      -16.45508
 30
        5.62000
 11
        0.23411
 21
      -18.08952
 31
      -15.00000
 12
      -11.96553
 22
      -14.82064
 32
      -15.00000
 13
      -11.96553
 23
      -14.82064
 33
      -15.00000
  0
3DFACE
  8
Building Shading
 62
195
 10
       -5.86571
 20
      -16.45508
 30
        5.62000
 11
      -11.96553
 21
      -14.82064
 31
      -15.00000
 12
      -11.96553
 22
      -14.82064
 32
        1.50000
 13
      -11.96553
 23
      -14.82064
 33
        1.50000
999
Building Shading:IW - MMCHLOWER - SURFACE 1 (41)
  0
3DFACE
  8
Building Shading
 62
195
 10
       22.08968
 20
       35.69656
 30
        0.00000
 11
       22.08968
 21
       35.69656
 31
      -15.00000
 12
       21.65502
 22
       35.81302
 32
      -15.00000
 13
       21.65502
 23
       35.81302
 33
        0.00000
999
Building Shading:Mir-IW - MMCHLOWER - SURFACE 1 (41)
  0
3DFACE
  8
Building Shading
 62
195
 10
       21.65502
 20
       35.81302
 30
        0.00000
 11
       21.65502
 21
       35.81302
 31
      -15.00000
 12
       22.08968
 22
       35.69656
 32
      -15.00000
 13
       22.08968
 23
       35.69656
 33
        0.00000
999
Building Shading:IW - MMCHLOWER - SURFACE 2 (42)
  0
3DFACE
  8
Building Shading
 62
195
 10
       20.70759
 20
       30.53851
 30
      -15.00000
 11
       16.75801
 21
       15.79848
 31
      -15.00000
 12
        9.81300
 22
       17.65939
 32
      -15.00000
 13
       13.76258
 23
       32.39942
 33
      -15.00000
999
Building Shading:Mir-IW - MMCHLOWER - SURFACE 2 (42)
  0
3DFACE
  8
Building Shading
 62
195
 10
       13.76258
 20
       32.39942
 30
      -15.00000
 11
        9.81300
 21
       17.65939
 31
      -15.00000
 12
       16.75801
 22
       15.79848
 32
      -15.00000
 13
       20.70759
 23
       30.53851
 33
      -15.00000
999
Building Shading:IW - MMCHLOWER - SURFACE 3 (43)
  0
3DFACE
  8
Building Shading
 62
195
 10
       13.76258
 20
       32.39942
 30
      -15.00000
 11
        2.69289
 21
       -8.91323
 31
      -15.00000
 12
       -9.50675
 22
       -5.64434
 32
      -15.00000
 13
        1.56294
 23
       35.66830
 33
      -15.00000
999
Building Shading:Mir-IW - MMCHLOWER - SURFACE 3 (43)
  0
3DFACE
  8
Building Shading
 62
195
 10
        1.56294
 20
       35.66830
 30
      -15.00000
 11
       -9.50675
 21
       -5.64434
 31
      -15.00000
 12
        2.69289
 22
       -8.91323
 32
      -15.00000
 13
       13.76258
 23
       32.39942
 33
      -15.00000
999
Building Shading:IW - MMCHLOWER - SURFACE 4 (44)
  0
3DFACE
  8
Building Shading
 62
195
 10
       22.05618
 20
       37.31021
 30
      -15.00000
 11
       21.65502
 21
       35.81302
 31
      -15.00000
 12
        0.77170
 22
       41.40869
 32
      -15.00000
 13
        1.17287
 23
       42.90588
 33
      -15.00000
999
Building Shading:Mir-IW - MMCHLOWER - SURFACE 4 (44)
  0
3DFACE
  8
Building Shading
 62
195
 10
        1.17287
 20
       42.90588
 30
      -15.00000
 11
        0.77170
 21
       41.40869
 31
      -15.00000
 12
       21.65502
 22
       35.81302
 32
      -15.00000
 13
       22.05618
 23
       37.31021
 33
      -15.00000
999
Building Shading:IW - MMCHLOWER - SURFACE 5 (45)
  0
3DFACE
  8
Building Shading
 62
195
 10
       22.08968
 20
       35.69656
 30
      -15.00000
 11
       20.70759
 21
       30.53851
 31
      -15.00000
 12
       -0.61040
 22
       36.25065
 32
      -15.00000
 13
        0.77170
 23
       41.40869
 33
      -15.00000
999
Building Shading:Mir-IW - MMCHLOWER - SURFACE 5 (45)
  0
3DFACE
  8
Building Shading
 62
195
 10
        0.77170
 20
       41.40869
 30
      -15.00000
 11
       -0.61040
 21
       36.25065
 31
      -15.00000
 12
       20.70759
 22
       30.53851
 32
      -15.00000
 13
       22.08968
 23
       35.69656
 33
      -15.00000
999
Building Shading:IW - MMCHLOWER - SURFACE 6 (46)
  0
3DFACE
  8
Building Shading
 62
195
 10
       21.65502
 20
       35.81302
 30
        0.00000
 11
       21.65502
 21
       35.81302
 31
      -15.00000
 12
       22.05618
 22
       37.31021
 32
      -15.00000
 13
       22.05618
 23
       37.31021
 33
        0.00000
999
Building Shading:Mir-IW - MMCHLOWER - SURFACE 6 (46)
  0
3DFACE
  8
Building Shading
 62
195
 10
       22.05618
 20
       37.31021
 30
        0.00000
 11
       22.05618
 21
       37.31021
 31
      -15.00000
 12
       21.65502
 22
       35.81302
 32
      -15.00000
 13
       21.65502
 23
       35.81302
 33
        0.00000
999
Building Shading:IW - MMCHLOWER - SURFACE 7 (47)
  0
3DFACE
  8
Building Shading
 62
195
 10
       21.65502
 20
       35.81302
 30
        0.00000
 11
       16.32334
 21
       15.91495
 31
        0.00000
 12
       16.75801
 22
       15.79848
 32
        0.00000
 13
       22.08968
 23
       35.69656
 33
        0.00000
999
Building Shading:Mir-IW - MMCHLOWER - SURFACE 7 (47)
  0
3DFACE
  8
Building Shading
 62
195
 10
       22.08968
 20
       35.69656
 30
        0.00000
 11
       16.75801
 21
       15.79848
 31
        0.00000
 12
       16.32334
 22
       15.91495
 32
        0.00000
 13
       21.65502
 23
       35.81302
 33
        0.00000
999
Building Shading:IW - MMCHLOWER - SURFACE 8 (48)
  0
3DFACE
  8
Building Shading
 62
195
 10
       -2.38664
 20
       20.92828
 30
        0.00000
 11
       -9.50675
 21
       -5.64434
 31
        0.00000
 12
        2.69289
 22
       -8.91323
 32
        0.00000
 13
        9.81300
 23
       17.65939
 33
        0.00000
999
Building Shading:Mir-IW - MMCHLOWER - SURFACE 8 (48)
  0
3DFACE
  8
Building Shading
 62
195
 10
        9.81300
 20
       17.65939
 30
        0.00000
 11
        2.69289
 21
       -8.91323
 31
        0.00000
 12
       -9.50675
 22
       -5.64434
 32
        0.00000
 13
       -2.38664
 23
       20.92828
 33
        0.00000
999
Building Shading:IW - MMCHLOWER - SURFACE 9 (49)
  0
3DFACE
  8
Building Shading
 62
195
 10
        1.17287
 20
       42.90588
 30
        0.00000
 11
       -0.61040
 21
       36.25065
 31
        0.00000
 12
        1.56294
 22
       35.66830
 32
        0.00000
 13
        3.34620
 23
       42.32353
 33
        0.00000
999
Building Shading:Mir-IW - MMCHLOWER - SURFACE 9 (49)
  0
3DFACE
  8
Building Shading
 62
195
 10
        3.34620
 20
       42.32353
 30
        0.00000
 11
        1.56294
 21
       35.66830
 31
        0.00000
 12
       -0.61040
 22
       36.25065
 32
        0.00000
 13
        1.17287
 23
       42.90588
 33
        0.00000
999
Building Shading:IW - MMCHLOWER - SURFACE 10 (50)
  0
3DFACE
  8
Building Shading
 62
195
 10
        3.34620
 20
       42.32353
 30
        0.00000
 11
       -2.38664
 21
       20.92828
 31
        0.00000
 12
       16.32334
 22
       15.91495
 32
        0.00000
 13
       22.05618
 23
       37.31021
 33
        0.00000
999
Building Shading:Mir-IW - MMCHLOWER - SURFACE 10 (50)
  0
3DFACE
  8
Building Shading
 62
195
 10
       22.05618
 20
       37.31021
 30
        0.00000
 11
       16.32334
 21
       15.91495
 31
        0.00000
 12
       -2.38664
 22
       20.92828
 32
        0.00000
 13
        3.34620
 23
       42.32353
 33
        0.00000
999
Building Shading:IW - MMCHLOWER - SURFACE 11 (51)
  0
3DFACE
  8
Building Shading
 62
195
 10
       16.75801
 20
       15.79848
 30
        0.00000
 11
       16.75801
 21
       15.79848
 31
      -15.00000
 12
       22.08968
 22
       35.69656
 32
      -15.00000
 13
       22.08968
 23
       35.69656
 33
        0.00000
999
Building Shading:Mir-IW - MMCHLOWER - SURFACE 11 (51)
  0
3DFACE
  8
Building Shading
 62
195
 10
       22.08968
 20
       35.69656
 30
        0.00000
 11
       22.08968
 21
       35.69656
 31
      -15.00000
 12
       16.75801
 22
       15.79848
 32
      -15.00000
 13
       16.75801
 23
       15.79848
 33
        0.00000
999
Building Shading:IW - MMCHLOWER - SURFACE 12 (52)
  0
3DFACE
  8
Building Shading
 62
195
 10
        9.81300
 20
       17.65939
 30
        0.00000
 11
        9.81300
 21
       17.65939
 31
      -15.00000
 12
       16.75801
 22
       15.79848
 32
      -15.00000
 13
       16.75801
 23
       15.79848
 33
        0.00000
999
Building Shading:Mir-IW - MMCHLOWER - SURFACE 12 (52)
  0
3DFACE
  8
Building Shading
 62
195
 10
       16.75801
 20
       15.79848
 30
        0.00000
 11
       16.75801
 21
       15.79848
 31
      -15.00000
 12
        9.81300
 22
       17.65939
 32
      -15.00000
 13
        9.81300
 23
       17.65939
 33
        0.00000
999
Building Shading:IW - MMCHLOWER - SURFACE 13 (53)
  0
3DFACE
  8
Building Shading
 62
195
 10
        2.69289
 20
       -8.91323
 30
        0.00000
 11
        2.69289
 21
       -8.91323
 31
      -15.00000
 12
        9.81300
 22
       17.65939
 32
      -15.00000
 13
        9.81300
 23
       17.65939
 33
        0.00000
999
Building Shading:Mir-IW - MMCHLOWER - SURFACE 13 (53)
  0
3DFACE
  8
Building Shading
 62
195
 10
        9.81300
 20
       17.65939
 30
        0.00000
 11
        9.81300
 21
       17.65939
 31
      -15.00000
 12
        2.69289
 22
       -8.91323
 32
      -15.00000
 13
        2.69289
 23
       -8.91323
 33
        0.00000
999
Building Shading:IW - MMCHLOWER - SURFACE 14 (54)
  0
3DFACE
  8
Building Shading
 62
195
 10
       -9.50675
 20
       -5.64434
 30
        0.00000
 11
       -9.50675
 21
       -5.64434
 31
      -15.00000
 12
        2.69289
 22
       -8.91323
 32
      -15.00000
 13
        2.69289
 23
       -8.91323
 33
        0.00000
999
Building Shading:Mir-IW - MMCHLOWER - SURFACE 14 (54)
  0
3DFACE
  8
Building Shading
 62
195
 10
        2.69289
 20
       -8.91323
 30
        0.00000
 11
        2.69289
 21
       -8.91323
 31
      -15.00000
 12
       -9.50675
 22
       -5.64434
 32
      -15.00000
 13
       -9.50675
 23
       -5.64434
 33
        0.00000
999
Building Shading:IW - MMCHLOWER - SURFACE 15 (55)
  0
3DFACE
  8
Building Shading
 62
195
 10
        1.56294
 20
       35.66830
 30
        0.00000
 11
        1.56294
 21
       35.66830
 31
      -15.00000
 12
       -9.50675
 22
       -5.64434
 32
      -15.00000
 13
       -9.50675
 23
       -5.64434
 33
        0.00000
999
Building Shading:Mir-IW - MMCHLOWER - SURFACE 15 (55)
  0
3DFACE
  8
Building Shading
 62
195
 10
       -9.50675
 20
       -5.64434
 30
        0.00000
 11
       -9.50675
 21
       -5.64434
 31
      -15.00000
 12
        1.56294
 22
       35.66830
 32
      -15.00000
 13
        1.56294
 23
       35.66830
 33
        0.00000
999
Building Shading:IW - MMCHLOWER - SURFACE 16 (56)
  0
3DFACE
  8
Building Shading
 62
195
 10
       -0.61040
 20
       36.25065
 30
        0.00000
 11
       -0.61040
 21
       36.25065
 31
      -15.00000
 12
        1.56294
 22
       35.66830
 32
      -15.00000
 13
        1.56294
 23
       35.66830
 33
        0.00000
999
Building Shading:Mir-IW - MMCHLOWER - SURFACE 16 (56)
  0
3DFACE
  8
Building Shading
 62
195
 10
        1.56294
 20
       35.66830
 30
        0.00000
 11
        1.56294
 21
       35.66830
 31
      -15.00000
 12
       -0.61040
 22
       36.25065
 32
      -15.00000
 13
       -0.61040
 23
       36.25065
 33
        0.00000
999
Building Shading:IW - MMCHLOWER - SURFACE 17 (57)
  0
3DFACE
  8
Building Shading
 62
195
 10
        1.17287
 20
       42.90588
 30
        0.00000
 11
        1.17287
 21
       42.90588
 31
      -15.00000
 12
       -0.61040
 22
       36.25065
 32
      -15.00000
 13
       -0.61040
 23
       36.25065
 33
        0.00000
999
Building Shading:Mir-IW - MMCHLOWER - SURFACE 17 (57)
  0
3DFACE
  8
Building Shading
 62
195
 10
       -0.61040
 20
       36.25065
 30
        0.00000
 11
       -0.61040
 21
       36.25065
 31
      -15.00000
 12
        1.17287
 22
       42.90588
 32
      -15.00000
 13
        1.17287
 23
       42.90588
 33
        0.00000
999
Building Shading:IW - MMCHLOWER - SURFACE 18 (58)
  0
3DFACE
  8
Building Shading
 62
195
 10
       22.05618
 20
       37.31021
 30
        0.00000
 11
       22.05618
 21
       37.31021
 31
      -15.00000
 12
        1.17287
 22
       42.90588
 32
      -15.00000
 13
        1.17287
 23
       42.90588
 33
        0.00000
999
Building Shading:Mir-IW - MMCHLOWER - SURFACE 18 (58)
  0
3DFACE
  8
Building Shading
 62
195
 10
        1.17287
 20
       42.90588
 30
        0.00000
 11
        1.17287
 21
       42.90588
 31
      -15.00000
 12
       22.05618
 22
       37.31021
 32
      -15.00000
 13
       22.05618
 23
       37.31021
 33
        0.00000
999
Building Shading:IW - IWCONNECTION - SURFACE 1 (59)
  0
3DFACE
  8
Building Shading
 62
195
 10
       -0.26495
 20
       -4.49721
 30
        0.00000
 11
       -1.22457
 21
       -7.86309
 31
        0.00000
 12
       -3.71108
 22
       -7.19683
 32
        0.00000
 13
       -2.80533
 23
       -3.81652
 33
        0.00000
999
Building Shading:Mir-IW - IWCONNECTION - SURFACE 1 (59)
  0
3DFACE
  8
Building Shading
 62
195
 10
       -2.80533
 20
       -3.81652
 30
        0.00000
 11
       -3.71108
 21
       -7.19683
 31
        0.00000
 12
       -1.22457
 22
       -7.86309
 32
        0.00000
 13
       -0.26495
 23
       -4.49721
 33
        0.00000
999
Building Shading:IW - IWCONNECTION - SURFACE 2 (60)
  0
3DFACE
  8
Building Shading
 62
195
 10
       -2.80533
 20
       -3.81652
 30
        4.12000
 11
       -3.71108
 21
       -7.19683
 31
        4.12000
 12
       -1.22457
 22
       -7.86309
 32
        4.12000
 13
       -0.26495
 23
       -4.49721
 33
        4.12000
999
Building Shading:Mir-IW - IWCONNECTION - SURFACE 2 (60)
  0
3DFACE
  8
Building Shading
 62
195
 10
       -0.26495
 20
       -4.49721
 30
        4.12000
 11
       -1.22457
 21
       -7.86309
 31
        4.12000
 12
       -3.71108
 22
       -7.19683
 32
        4.12000
 13
       -2.80533
 23
       -3.81652
 33
        4.12000
999
Building Shading:IW - IWCONNECTION - SURFACE 3 (61)
  0
3DFACE
  8
Building Shading
 62
195
 10
       -1.22457
 20
       -7.86309
 30
        4.12000
 11
       -1.22457
 21
       -7.86309
 31
        0.00000
 12
       -0.26495
 22
       -4.49721
 32
        0.00000
 13
       -0.26495
 23
       -4.49721
 33
        4.12000
999
Building Shading:Mir-IW - IWCONNECTION - SURFACE 3 (61)
  0
3DFACE
  8
Building Shading
 62
195
 10
       -0.26495
 20
       -4.49721
 30
        4.12000
 11
       -0.26495
 21
       -4.49721
 31
        0.00000
 12
       -1.22457
 22
       -7.86309
 32
        0.00000
 13
       -1.22457
 23
       -7.86309
 33
        4.12000
999
Building Shading:IW - IWCONNECTION - SURFACE 4 (62)
  0
3DFACE
  8
Building Shading
 62
195
 10
       -3.71108
 20
       -7.19683
 30
        4.12000
 11
       -3.71108
 21
       -7.19683
 31
        0.00000
 12
       -1.22457
 22
       -7.86309
 32
        0.00000
 13
       -1.22457
 23
       -7.86309
 33
        4.12000
999
Building Shading:Mir-IW - IWCONNECTION - SURFACE 4 (62)
  0
3DFACE
  8
Building Shading
 62
195
 10
       -1.22457
 20
       -7.86309
 30
        4.12000
 11
       -1.22457
 21
       -7.86309
 31
        0.00000
 12
       -3.71108
 22
       -7.19683
 32
        0.00000
 13
       -3.71108
 23
       -7.19683
 33
        4.12000
999
Building Shading:IW - IWCONNECTION - SURFACE 5 (63)
  0
3DFACE
  8
Building Shading
 62
195
 10
       -2.80533
 20
       -3.81652
 30
        4.12000
 11
       -2.80533
 21
       -3.81652
 31
        0.00000
 12
       -3.71108
 22
       -7.19683
 32
        0.00000
 13
       -3.71108
 23
       -7.19683
 33
        4.12000
999
Building Shading:Mir-IW - IWCONNECTION - SURFACE 5 (63)
  0
3DFACE
  8
Building Shading
 62
195
 10
       -3.71108
 20
       -7.19683
 30
        4.12000
 11
       -3.71108
 21
       -7.19683
 31
        0.00000
 12
       -2.80533
 22
       -3.81652
 32
        0.00000
 13
       -2.80533
 23
       -3.81652
 33
        4.12000
999
Building Shading:IW - IWCONNECTION - SURFACE 6 (64)
  0
3DFACE
  8
Building Shading
 62
195
 10
       -0.26495
 20
       -4.49721
 30
        4.12000
 11
       -0.26495
 21
       -4.49721
 31
        0.00000
 12
       -2.80533
 22
       -3.81652
 32
        0.00000
 13
       -2.80533
 23
       -3.81652
 33
        4.12000
999
Building Shading:Mir-IW - IWCONNECTION - SURFACE 6 (64)
  0
3DFACE
  8
Building Shading
 62
195
 10
       -2.80533
 20
       -3.81652
 30
        4.12000
 11
       -2.80533
 21
       -3.81652
 31
        0.00000
 12
       -0.26495
 22
       -4.49721
 32
        0.00000
 13
       -0.26495
 23
       -4.49721
 33
        4.12000
999
Building Shading:IW - SOUTHPLATFORM0 - SURFACE 2 (65)
  0
3DFACE
  8
Building Shading
 62
195
 10
        3.59876
 20
       -5.53249
 30
        1.02000
 11
        2.71877
 21
       -8.81664
 31
        1.02000
 12
       -1.10210
 22
       -7.79239
 32
        1.02000
 13
       -0.16989
 23
       -4.52268
 33
        1.02000
999
Building Shading:Mir-IW - SOUTHPLATFORM0 - SURFACE 2 (65)
  0
3DFACE
  8
Building Shading
 62
195
 10
       -0.16989
 20
       -4.52268
 30
        1.02000
 11
       -1.10210
 21
       -7.79239
 31
        1.02000
 12
        2.71877
 22
       -8.81664
 32
        1.02000
 13
        3.59876
 23
       -5.53249
 33
        1.02000
999
Building Shading:IW - SOUTHPLATFORM1 - SURFACE 1 (66)
  0
3DFACE
  8
Building Shading
 62
195
 10
       -2.80533
 20
       -3.81652
 30
        1.02000
 11
       -3.68532
 21
       -7.10066
 31
        1.02000
 12
       -8.51494
 22
       -5.80657
 32
        1.02000
 13
       -7.63496
 23
       -2.52242
 33
        1.02000
999
Building Shading:Mir-IW - SOUTHPLATFORM1 - SURFACE 1 (66)
  0
3DFACE
  8
Building Shading
 62
195
 10
       -7.63496
 20
       -2.52242
 30
        1.02000
 11
       -8.51494
 21
       -5.80657
 31
        1.02000
 12
       -3.68532
 22
       -7.10066
 32
        1.02000
 13
       -2.80533
 23
       -3.81652
 33
        1.02000
999
UNDERFLOOR_VOID_SPACE:UNDERFLOOR_VOID_SPACE_WALL_2_0_0
  0
3DFACE
  8
UNDERFLOOR_VOID_SPACE
 62
 43
 10
        3.59876
 20
       -5.53249
 30
        1.12000
 11
        3.59876
 21
       -5.53249
 31
        0.00000
 12
        9.81300
 22
       17.65939
 32
        0.00000
 13
        9.81300
 23
       17.65939
 33
        1.12000
999
UNDERFLOOR_VOID_SPACE:UNDERFLOOR_VOID_SPACE_WALL_2_0_0_0_0_0_SUBSURFACE
  0
3DFACE
  8
UNDERFLOOR_VOID_SPACE
 62
 45
 10
        3.59953
 20
       -5.52959
 30
        0.34700
 11
        3.59953
 21
       -5.52959
 31
        0.00300
 12
        9.81223
 22
       17.65649
 32
        0.00300
 13
        9.81223
 23
       17.65649
 33
        0.34700
999
UNDERFLOOR_VOID_SPACE:UNDERFLOOR_VOID_SPACE_WALL_3_0_0
  0
3DFACE
  8
UNDERFLOOR_VOID_SPACE
 62
 43
 10
        9.81300
 20
       17.65939
 30
        1.12000
 11
        9.81300
 21
       17.65939
 31
        0.00000
 12
       16.75801
 22
       15.79848
 32
        0.00000
 13
       16.75801
 23
       15.79848
 33
        1.12000
999
UNDERFLOOR_VOID_SPACE:UNDERFLOOR_VOID_SPACE_WALL_3_0_0_0_0_0_SUBSURFACE
  0
3DFACE
  8
UNDERFLOOR_VOID_SPACE
 62
 45
 10
        9.81590
 20
       17.65862
 30
        0.34700
 11
        9.81590
 21
       17.65862
 31
        0.00300
 12
       16.75511
 22
       15.79926
 32
        0.00300
 13
       16.75511
 23
       15.79926
 33
        0.34700
999
UNDERFLOOR_VOID_SPACE:UNDERFLOOR_VOID_SPACE_WALL_4_0_0
  0
3DFACE
  8
UNDERFLOOR_VOID_SPACE
 62
 43
 10
       16.75801
 20
       15.79848
 30
        1.12000
 11
       16.75801
 21
       15.79848
 31
        0.00000
 12
       21.93439
 22
       35.11700
 32
        0.00000
 13
       21.93439
 23
       35.11700
 33
        1.12000
999
UNDERFLOOR_VOID_SPACE:UNDERFLOOR_VOID_SPACE_WALL_4_0_0_0_0_0_SUBSURFACE
  0
3DFACE
  8
UNDERFLOOR_VOID_SPACE
 62
 45
 10
       16.75853
 20
       15.80042
 30
        0.34800
 11
       16.75853
 21
       15.80042
 31
        0.00200
 12
       21.93387
 22
       35.11507
 32
        0.00200
 13
       21.93387
 23
       35.11507
 33
        0.34800
999
UNDERFLOOR_VOID_SPACE:UNDERFLOOR_VOID_SPACE_WALL_5_0_0
  0
3DFACE
  8
UNDERFLOOR_VOID_SPACE
 62
 43
 10
       21.93439
 20
       35.11700
 30
        1.12000
 11
       21.93439
 21
       35.11700
 31
        0.00000
 12
        4.72159
 22
       39.72916
 32
        0.00000
 13
        4.72159
 23
       39.72916
 33
        1.12000
999
UNDERFLOOR_VOID_SPACE:UNDERFLOOR_VOID_SPACE_WALL_5_0_0_0_0_0_SUBSURFACE
  0
3DFACE
  8
UNDERFLOOR_VOID_SPACE
 62
 45
 10
       21.93149
 20
       35.11778
 30
        0.34700
 11
       21.93149
 21
       35.11778
 31
        0.00300
 12
        4.72449
 22
       39.72838
 32
        0.00300
 13
        4.72449
 23
       39.72838
 33
        0.34700
999
UNDERFLOOR_VOID_SPACE:UNDERFLOOR_VOID_SPACE_WALL_6_0_0
  0
3DFACE
  8
UNDERFLOOR_VOID_SPACE
 62
 43
 10
        4.72159
 20
       39.72916
 30
        1.12000
 11
        4.72159
 21
       39.72916
 31
        0.00000
 12
       -6.66903
 22
       -2.78124
 32
        0.00000
 13
       -6.66903
 23
       -2.78124
 33
        1.12000
999
UNDERFLOOR_VOID_SPACE:UNDERFLOOR_VOID_SPACE_WALL_6_0_0_0_0_0_SUBSURFACE
  0
3DFACE
  8
UNDERFLOOR_VOID_SPACE
 62
 45
 10
        4.72082
 20
       39.72626
 30
        0.34700
 11
        4.72082
 21
       39.72626
 31
        0.00300
 12
       -6.66826
 22
       -2.77834
 32
        0.00300
 13
       -6.66826
 23
       -2.77834
 33
        0.34700
999
UNDERFLOOR_VOID_SPACE:UNDERFLOOR_VOID_SPACE_PARTITION_7_0_0
  0
3DFACE
  8
UNDERFLOOR_VOID_SPACE
 62
 43
 10
       -2.80533
 20
       -3.81652
 30
        1.12000
 11
       -2.80533
 21
       -3.81652
 31
        0.00000
 12
       -0.26495
 22
       -4.49721
 32
        0.00000
 13
       -0.26495
 23
       -4.49721
 33
        1.12000
999
UNDERFLOOR_VOID_SPACE:UNDERFLOOR_VOID_SPACE_WALL_7_1_0
  0
3DFACE
  8
UNDERFLOOR_VOID_SPACE
 62
 43
 10
       -0.26495
 20
       -4.49721
 30
        1.12000
 11
       -0.26495
 21
       -4.49721
 31
        0.00000
 12
        3.59876
 22
       -5.53249
 32
        0.00000
 13
        3.59876
 23
       -5.53249
 33
        1.12000
999
UNDERFLOOR_VOID_SPACE:UNDERFLOOR_VOID_SPACE_WALL_7_1_1
  0
3DFACE
  8
UNDERFLOOR_VOID_SPACE
 62
 43
 10
       -6.66903
 20
       -2.78124
 30
        1.12000
 11
       -6.66903
 21
       -2.78124
 31
        0.00000
 12
       -2.80533
 22
       -3.81652
 32
        0.00000
 13
       -2.80533
 23
       -3.81652
 33
        1.12000
999
UNDERFLOOR_VOID_SPACE:UNDERFLOOR_VOID_SPACE_FLOOR_0_0_0
  0
3DFACE
  8
UNDERFLOOR_VOID_SPACE
 62
  8
 10
       21.93439
 20
       35.11700
 30
        0.00000
 11
       16.75801
 21
       15.79848
 31
        0.00000
 12
        9.81300
 22
       17.65939
 32
        0.00000
 13
       14.98938
 23
       36.97791
 33
        0.00000
999
UNDERFLOOR_VOID_SPACE:UNDERFLOOR_VOID_SPACE_FLOOR_0_0_1
  0
3DFACE
  8
UNDERFLOOR_VOID_SPACE
 62
  8
 10
       14.98938
 20
       36.97791
 30
        0.00000
 11
        3.59876
 21
       -5.53249
 31
        0.00000
 12
       -6.66903
 22
       -2.78124
 32
        0.00000
 13
        4.72159
 23
       39.72916
 33
        0.00000
999
UNDERFLOOR_VOID_SPACE:UNDERFLOOR_VOID_SPACE_CEILING_1_0_0
  0
3DFACE
  8
UNDERFLOOR_VOID_SPACE
 62
 15
 10
        6.33518
 20
       28.94403
 30
        1.12000
 11
        3.74699
 21
       19.28478
 31
        1.12000
 12
        5.61123
 22
       18.78526
 32
        1.12000
 13
        8.19942
 23
       28.44451
 33
        1.12000
999
UNDERFLOOR_VOID_SPACE:UNDERFLOOR_VOID_SPACE_CEILING_1_1_0
  0
3DFACE
  8
UNDERFLOOR_VOID_SPACE
 62
 15
 10
        8.19942
 20
       28.44451
 30
        1.12000
 11
        6.90532
 21
       23.61488
 31
        1.12000
 12
       13.85010
 22
       21.75403
 32
        1.12000
 13
       15.14420
 23
       26.58366
 33
        1.12000
999
UNDERFLOOR_VOID_SPACE:UNDERFLOOR_VOID_SPACE_CEILING_1_2_0
  0
3DFACE
  8
UNDERFLOOR_VOID_SPACE
 62
 15
 10
       15.14420
 20
       26.58366
 30
        1.12000
 11
       13.85010
 21
       21.75403
 31
        1.12000
 12
       18.05210
 22
       20.62811
 32
        1.12000
 13
       19.34620
 23
       25.45774
 33
        1.12000
999
UNDERFLOOR_VOID_SPACE:UNDERFLOOR_VOID_SPACE_CEILING_1_3_0
  0
3DFACE
  8
UNDERFLOOR_VOID_SPACE
 62
 15
 10
        6.90532
 20
       23.61488
 30
        1.12000
 11
        5.61123
 21
       18.78526
 31
        1.12000
 12
       16.75801
 22
       15.79848
 32
        1.12000
 13
       18.05210
 23
       20.62811
 33
        1.12000
999
UNDERFLOOR_VOID_SPACE:UNDERFLOOR_VOID_SPACE_CEILING_1_4_0
  0
3DFACE
  8
UNDERFLOOR_VOID_SPACE
 62
 15
 10
        3.74699
 20
       19.28478
 30
        1.12000
 11
       -2.46726
 21
       -3.90710
 31
        1.12000
 12
       -0.60302
 22
       -4.40662
 32
        1.12000
 13
        5.61123
 23
       18.78526
 33
        1.12000
999
UNDERFLOOR_VOID_SPACE:UNDERFLOOR_VOID_SPACE_CEILING_1_5_0
  0
3DFACE
  8
UNDERFLOOR_VOID_SPACE
 62
 15
 10
        5.61123
 20
       18.78526
 30
        1.12000
 11
        4.34042
 21
       14.04256
 31
        1.12000
 12
        8.54220
 22
       12.91670
 32
        1.12000
 13
        9.81300
 23
       17.65939
 33
        1.12000
999
UNDERFLOOR_VOID_SPACE:UNDERFLOOR_VOID_SPACE_CEILING_1_6_0
  0
3DFACE
  8
UNDERFLOOR_VOID_SPACE
 62
 15
 10
        4.34042
 20
       14.04256
 30
        1.12000
 11
        3.09809
 21
        9.40612
 31
        1.12000
 12
        7.29987
 22
        8.28025
 32
        1.12000
 13
        8.54220
 23
       12.91670
 33
        1.12000
999
UNDERFLOOR_VOID_SPACE:UNDERFLOOR_VOID_SPACE_CEILING_1_7_0
  0
3DFACE
  8
UNDERFLOOR_VOID_SPACE
 62
 15
 10
        3.09809
 20
        9.40612
 30
        1.12000
 11
        1.85576
 21
        4.76967
 31
        1.12000
 12
        6.05754
 22
        3.64381
 32
        1.12000
 13
        7.29987
 23
        8.28025
 33
        1.12000
999
UNDERFLOOR_VOID_SPACE:UNDERFLOOR_VOID_SPACE_CEILING_1_8_0
  0
3DFACE
  8
UNDERFLOOR_VOID_SPACE
 62
 15
 10
        1.85576
 20
        4.76967
 30
        1.12000
 11
        0.61343
 21
        0.13323
 31
        1.12000
 12
        4.81521
 22
       -0.99264
 32
        1.12000
 13
        6.05754
 23
        3.64381
 33
        1.12000
999
UNDERFLOOR_VOID_SPACE:UNDERFLOOR_VOID_SPACE_CEILING_1_9_0
  0
3DFACE
  8
UNDERFLOOR_VOID_SPACE
 62
 15
 10
        0.61343
 20
        0.13323
 30
        1.12000
 11
       -0.60302
 21
       -4.40662
 31
        1.12000
 12
        3.59876
 22
       -5.53249
 32
        1.12000
 13
        4.81521
 23
       -0.99264
 33
        1.12000
999
UNDERFLOOR_VOID_SPACE:UNDERFLOOR_VOID_SPACE_CEILING_1_10_0
  0
3DFACE
  8
UNDERFLOOR_VOID_SPACE
 62
 15
 10
        2.13340
 20
       30.06990
 30
        1.12000
 11
        0.83931
 21
       25.24027
 31
        1.12000
 12
        5.04108
 22
       24.11440
 32
        1.12000
 13
        6.33518
 23
       28.94403
 33
        1.12000
999
UNDERFLOOR_VOID_SPACE:UNDERFLOOR_VOID_SPACE_CEILING_1_11_0
  0
3DFACE
  8
UNDERFLOOR_VOID_SPACE
 62
 15
 10
        0.83931
 20
       25.24027
 30
        1.12000
 11
       -0.45479
 21
       20.41064
 31
        1.12000
 12
        3.74699
 22
       19.28478
 32
        1.12000
 13
        5.04108
 23
       24.11440
 33
        1.12000
999
UNDERFLOOR_VOID_SPACE:UNDERFLOOR_VOID_SPACE_CEILING_1_12_0
  0
3DFACE
  8
UNDERFLOOR_VOID_SPACE
 62
 15
 10
       -0.45479
 20
       20.41064
 30
        1.12000
 11
       -1.72559
 21
       15.66794
 31
        1.12000
 12
        2.47619
 22
       14.54208
 32
        1.12000
 13
        3.74699
 23
       19.28478
 33
        1.12000
999
UNDERFLOOR_VOID_SPACE:UNDERFLOOR_VOID_SPACE_CEILING_1_13_0
  0
3DFACE
  8
UNDERFLOOR_VOID_SPACE
 62
 15
 10
       -1.72559
 20
       15.66794
 30
        1.12000
 11
       -2.96792
 21
       11.03150
 31
        1.12000
 12
        1.23386
 22
        9.90564
 32
        1.12000
 13
        2.47619
 23
       14.54208
 33
        1.12000
999
UNDERFLOOR_VOID_SPACE:UNDERFLOOR_VOID_SPACE_CEILING_1_14_0
  0
3DFACE
  8
UNDERFLOOR_VOID_SPACE
 62
 15
 10
       -2.96792
 20
       11.03150
 30
        1.12000
 11
       -4.21025
 21
        6.39505
 31
        1.12000
 12
       -0.00848
 22
        5.26919
 32
        1.12000
 13
        1.23386
 23
        9.90564
 33
        1.12000
999
UNDERFLOOR_VOID_SPACE:UNDERFLOOR_VOID_SPACE_CEILING_1_15_0
  0
3DFACE
  8
UNDERFLOOR_VOID_SPACE
 62
 15
 10
       -4.21025
 20
        6.39505
 30
        1.12000
 11
       -5.45258
 21
        1.75861
 31
        1.12000
 12
       -1.25081
 22
        0.63275
 32
        1.12000
 13
       -0.00848
 23
        5.26919
 33
        1.12000
999
UNDERFLOOR_VOID_SPACE:UNDERFLOOR_VOID_SPACE_CEILING_1_16_0
  0
3DFACE
  8
UNDERFLOOR_VOID_SPACE
 62
 15
 10
       -5.45258
 20
        1.75861
 30
        1.12000
 11
       -6.66903
 21
       -2.78124
 31
        1.12000
 12
       -2.46726
 22
       -3.90710
 32
        1.12000
 13
       -1.25081
 23
        0.63275
 33
        1.12000
999
UNDERFLOOR_VOID_SPACE:UNDERFLOOR_VOID_SPACE_CEILING_1_17_0
  0
3DFACE
  8
UNDERFLOOR_VOID_SPACE
 62
 15
 10
        4.72159
 20
       39.72916
 30
        1.12000
 11
        3.42847
 21
       34.90318
 31
        1.12000
 12
       16.43927
 22
       31.41694
 32
        1.12000
 13
       17.73239
 23
       36.24292
 33
        1.12000
999
UNDERFLOOR_VOID_SPACE:UNDERFLOOR_VOID_SPACE_CEILING_1_18_0
  0
3DFACE
  8
UNDERFLOOR_VOID_SPACE
 62
 15
 10
       17.73239
 20
       36.24292
 30
        1.12000
 11
       16.43927
 21
       31.41694
 31
        1.12000
 12
       20.64127
 22
       30.29102
 32
        1.12000
 13
       21.93417
 23
       35.11706
 33
        1.12000
999
UNDERFLOOR_VOID_SPACE:UNDERFLOOR_VOID_SPACE_CEILING_1_19_0
  0
3DFACE
  8
UNDERFLOOR_VOID_SPACE
 62
 15
 10
        3.42847
 20
       34.90318
 30
        1.12000
 11
        2.13340
 21
       30.06990
 31
        1.12000
 12
       15.14420
 22
       26.58366
 32
        1.12000
 13
       16.43927
 23
       31.41694
 33
        1.12000
999
UNDERFLOOR_VOID_SPACE:UNDERFLOOR_VOID_SPACE_CEILING_1_20_0
  0
3DFACE
  8
UNDERFLOOR_VOID_SPACE
 62
 15
 10
       16.43927
 20
       31.41694
 30
        1.12000
 11
       15.14420
 21
       26.58366
 31
        1.12000
 12
       19.34620
 22
       25.45774
 32
        1.12000
 13
       20.64127
 23
       30.29102
 33
        1.12000
999
ROOFS1:ROOFS1_FLOOR_0_0_0
  0
3DFACE
  8
ROOFS1
 62
  8
 10
        1.85576
 20
        4.76967
 30
        4.12000
 11
        0.61343
 21
        0.13323
 31
        4.12000
 12
       -1.25081
 22
        0.63275
 32
        4.12000
 13
       -0.00848
 23
        5.26919
 33
        4.12000
999
ROOFS1:ROOFS1_FLOOR_0_0_0_0_0_0_HOLE
  0
3DFACE
  8
ROOFS1
 62
 45
 10
        1.85209
 20
        4.76755
 30
        4.12000
 11
        0.61131
 21
        0.13690
 31
        4.12000
 12
       -1.24713
 22
        0.63487
 32
        4.12000
 13
       -0.00635
 23
        5.26552
 33
        4.12000
999
ROOFS1:ROOFS1_FLOOR_0_1_0
  0
3DFACE
  8
ROOFS1
 62
  8
 10
        6.05754
 20
        3.64381
 30
        4.12000
 11
        4.81521
 21
       -0.99264
 31
        4.12000
 12
        0.61343
 22
        0.13323
 32
        4.12000
 13
        1.85576
 23
        4.76967
 33
        4.12000
999
ROOFS1:ROOFS1_FLOOR_0_1_0_0_0_1_HOLE
  0
3DFACE
  8
ROOFS1
 62
 45
 10
        6.05386
 20
        3.64169
 30
        4.12000
 11
        4.81309
 21
       -0.98896
 31
        4.12000
 12
        0.61710
 22
        0.13535
 32
        4.12000
 13
        1.85788
 23
        4.76600
 33
        4.12000
999
ROOFS1:ROOFS1_FLOOR_0_2_0
  0
3DFACE
  8
ROOFS1
 62
  8
 10
       -0.00848
 20
        5.26919
 30
        4.12000
 11
       -1.25081
 21
        0.63275
 31
        4.12000
 12
       -5.45258
 22
        1.75861
 32
        4.12000
 13
       -4.21025
 23
        6.39505
 33
        4.12000
999
ROOFS1:ROOFS1_ROOF_1_0_0
  0
3DFACE
  8
ROOFS1
 62
 15
 10
       -2.83187
 20
        2.53684
 30
        5.42000
 11
       -5.45258
 21
        1.75861
 31
        4.12000
 12
        4.81521
 22
       -0.99264
 32
        4.12000
 13
        2.67391
 23
        1.06157
 33
        5.42000
999
ROOFS1:ROOFS1_ROOF_2_0_0
  0
3DFACE
  8
ROOFS1
 62
 15
 10
       -2.59893
 20
        3.40617
 30
        5.42000
 11
       -4.21025
 21
        6.39505
 31
        4.12000
 12
       -5.45258
 22
        1.75861
 32
        4.12000
 13
       -2.83187
 23
        2.53684
 33
        5.42000
999
ROOFS1:ROOFS1_ROOF_3_0_0
  0
3DFACE
  8
ROOFS1
 62
 15
 10
        2.67391
 20
        1.06157
 30
        5.42000
 11
        4.81521
 21
       -0.99264
 31
        4.12000
 12
        6.05754
 22
        3.64381
 32
        4.12000
 13
        2.90685
 23
        1.93090
 33
        5.42000
999
ROOFS1:ROOFS1_ROOF_4_0_0
  0
3DFACE
  8
ROOFS1
 62
 15
 10
        2.90685
 20
        1.93090
 30
        5.42000
 11
        6.05754
 21
        3.64381
 31
        4.12000
 12
       -4.21025
 22
        6.39505
 32
        4.12000
 13
       -2.59893
 23
        3.40617
 33
        5.42000
999
ROOFS1:ROOFS1_ROOF_5_0_0
  0
3DFACE
  8
ROOFS1
 62
 15
 10
       -2.59893
 20
        3.40617
 30
        5.42000
 11
       -2.83187
 21
        2.53684
 31
        5.42000
 12
        2.67391
 22
        1.06157
 32
        5.42000
 13
        2.90685
 23
        1.93090
 33
        5.42000
999
ROOFS2:ROOFS2_FLOOR_0_0_0
  0
3DFACE
  8
ROOFS2
 62
  8
 10
        3.09809
 20
        9.40612
 30
        4.12000
 11
        1.85576
 21
        4.76967
 31
        4.12000
 12
       -0.00848
 22
        5.26919
 32
        4.12000
 13
        1.23386
 23
        9.90564
 33
        4.12000
999
ROOFS2:ROOFS2_FLOOR_0_0_0_0_0_0_HOLE
  0
3DFACE
  8
ROOFS2
 62
 45
 10
        3.09442
 20
        9.40399
 30
        4.12000
 11
        1.85364
 21
        4.77335
 31
        4.12000
 12
       -0.00480
 22
        5.27131
 32
        4.12000
 13
        1.23598
 23
        9.90196
 33
        4.12000
999
ROOFS2:ROOFS2_FLOOR_0_1_0
  0
3DFACE
  8
ROOFS2
 62
  8
 10
        7.29987
 20
        8.28025
 30
        4.12000
 11
        6.05754
 21
        3.64381
 31
        4.12000
 12
        1.85576
 22
        4.76967
 32
        4.12000
 13
        3.09809
 23
        9.40612
 33
        4.12000
999
ROOFS2:ROOFS2_FLOOR_0_1_0_0_0_1_HOLE
  0
3DFACE
  8
ROOFS2
 62
 45
 10
        7.29620
 20
        8.27813
 30
        4.12000
 11
        6.05542
 21
        3.64748
 31
        4.12000
 12
        1.85944
 22
        4.77179
 32
        4.12000
 13
        3.10021
 23
        9.40244
 33
        4.12000
999
ROOFS2:ROOFS2_FLOOR_0_2_0
  0
3DFACE
  8
ROOFS2
 62
  8
 10
        1.23386
 20
        9.90564
 30
        4.12000
 11
       -0.00848
 21
        5.26919
 31
        4.12000
 12
       -4.21025
 22
        6.39505
 32
        4.12000
 13
       -2.96792
 23
       11.03150
 33
        4.12000
999
ROOFS2:ROOFS2_FLOOR_0_2_0_0_0_2_HOLE
  0
3DFACE
  8
ROOFS2
 62
 45
 10
        1.23018
 20
        9.90351
 30
        4.12000
 11
       -0.01060
 21
        5.27287
 31
        4.12000
 12
       -4.20658
 22
        6.39718
 32
        4.12000
 13
       -2.96580
 23
       11.02782
 33
        4.12000
999
ROOFS2:ROOFS2_ROOF_1_0_0
  0
3DFACE
  8
ROOFS2
 62
 15
 10
       -1.58953
 20
        7.17328
 30
        5.42000
 11
       -4.21025
 21
        6.39505
 31
        4.12000
 12
        6.05754
 22
        3.64381
 32
        4.12000
 13
        3.91624
 23
        5.69801
 33
        5.42000
999
ROOFS2:ROOFS2_ROOF_2_0_0
  0
3DFACE
  8
ROOFS2
 62
 15
 10
       -1.35660
 20
        8.04261
 30
        5.42000
 11
       -2.96792
 21
       11.03150
 31
        4.12000
 12
       -4.21025
 22
        6.39505
 32
        4.12000
 13
       -1.58953
 23
        7.17328
 33
        5.42000
999
ROOFS2:ROOFS2_ROOF_3_0_0
  0
3DFACE
  8
ROOFS2
 62
 15
 10
        3.91624
 20
        5.69801
 30
        5.42000
 11
        6.05754
 21
        3.64381
 31
        4.12000
 12
        7.29987
 22
        8.28025
 32
        4.12000
 13
        4.14918
 23
        6.56735
 33
        5.42000
999
ROOFS2:ROOFS2_ROOF_4_0_0
  0
3DFACE
  8
ROOFS2
 62
 15
 10
        4.14918
 20
        6.56735
 30
        5.42000
 11
        7.29987
 21
        8.28025
 31
        4.12000
 12
       -2.96792
 22
       11.03150
 32
        4.12000
 13
       -1.35660
 23
        8.04261
 33
        5.42000
999
ROOFS2:ROOFS2_ROOF_5_0_0
  0
3DFACE
  8
ROOFS2
 62
 15
 10
       -1.35660
 20
        8.04261
 30
        5.42000
 11
       -1.58953
 21
        7.17328
 31
        5.42000
 12
        3.91624
 22
        5.69801
 32
        5.42000
 13
        4.14918
 23
        6.56735
 33
        5.42000
999
ROOFS3:ROOFS3_FLOOR_0_0_0
  0
3DFACE
  8
ROOFS3
 62
  8
 10
        4.34042
 20
       14.04256
 30
        4.12000
 11
        3.09809
 21
        9.40612
 31
        4.12000
 12
        1.23386
 22
        9.90564
 32
        4.12000
 13
        2.47619
 23
       14.54208
 33
        4.12000
999
ROOFS3:ROOFS3_FLOOR_0_0_0_0_0_0_HOLE
  0
3DFACE
  8
ROOFS3
 62
 45
 10
        4.33675
 20
       14.04044
 30
        4.12000
 11
        3.09597
 21
        9.40979
 31
        4.12000
 12
        1.23753
 22
        9.90776
 32
        4.12000
 13
        2.47831
 23
       14.53841
 33
        4.12000
999
ROOFS3:ROOFS3_FLOOR_0_1_0
  0
3DFACE
  8
ROOFS3
 62
  8
 10
        8.54220
 20
       12.91670
 30
        4.12000
 11
        7.29987
 21
        8.28025
 31
        4.12000
 12
        3.09809
 22
        9.40612
 32
        4.12000
 13
        4.34042
 23
       14.04256
 33
        4.12000
999
ROOFS3:ROOFS3_FLOOR_0_1_0_0_0_1_HOLE
  0
3DFACE
  8
ROOFS3
 62
 45
 10
        8.53853
 20
       12.91458
 30
        4.12000
 11
        7.29775
 21
        8.28393
 31
        4.12000
 12
        3.10177
 22
        9.40824
 32
        4.12000
 13
        4.34255
 23
       14.03889
 33
        4.12000
999
ROOFS3:ROOFS3_FLOOR_0_2_0
  0
3DFACE
  8
ROOFS3
 62
  8
 10
        2.47619
 20
       14.54208
 30
        4.12000
 11
        1.23386
 21
        9.90564
 31
        4.12000
 12
       -2.96792
 22
       11.03150
 32
        4.12000
 13
       -1.72559
 23
       15.66794
 33
        4.12000
999
ROOFS3:ROOFS3_FLOOR_0_2_0_0_0_2_HOLE
  0
3DFACE
  8
ROOFS3
 62
 45
 10
        2.47251
 20
       14.53996
 30
        4.12000
 11
        1.23173
 21
        9.90931
 31
        4.12000
 12
       -2.96425
 22
       11.03362
 32
        4.12000
 13
       -1.72347
 23
       15.66427
 33
        4.12000
999
ROOFS3:ROOFS3_ROOF_1_0_0
  0
3DFACE
  8
ROOFS3
 62
 15
 10
       -0.34720
 20
       11.80972
 30
        5.42000
 11
       -2.96792
 21
       11.03150
 31
        4.12000
 12
        7.29987
 22
        8.28025
 32
        4.12000
 13
        5.15857
 23
       10.33446
 33
        5.42000
999
ROOFS3:ROOFS3_ROOF_2_0_0
  0
3DFACE
  8
ROOFS3
 62
 15
 10
       -0.11427
 20
       12.67906
 30
        5.42000
 11
       -1.72559
 21
       15.66794
 31
        4.12000
 12
       -2.96792
 22
       11.03150
 32
        4.12000
 13
       -0.34720
 23
       11.80972
 33
        5.42000
999
ROOFS3:ROOFS3_ROOF_3_0_0
  0
3DFACE
  8
ROOFS3
 62
 15
 10
        5.15857
 20
       10.33446
 30
        5.42000
 11
        7.29987
 21
        8.28025
 31
        4.12000
 12
        8.54220
 22
       12.91670
 32
        4.12000
 13
        5.39151
 23
       11.20379
 33
        5.42000
999
ROOFS3:ROOFS3_ROOF_4_0_0
  0
3DFACE
  8
ROOFS3
 62
 15
 10
        5.39151
 20
       11.20379
 30
        5.42000
 11
        8.54220
 21
       12.91670
 31
        4.12000
 12
       -1.72559
 22
       15.66794
 32
        4.12000
 13
       -0.11427
 23
       12.67906
 33
        5.42000
999
ROOFS3:ROOFS3_ROOF_5_0_0
  0
3DFACE
  8
ROOFS3
 62
 15
 10
       -0.11427
 20
       12.67906
 30
        5.42000
 11
       -0.34720
 21
       11.80972
 31
        5.42000
 12
        5.15857
 22
       10.33446
 32
        5.42000
 13
        5.39151
 23
       11.20379
 33
        5.42000
999
ROOFS0:ROOFS0_FLOOR_0_0_0
  0
3DFACE
  8
ROOFS0
 62
  8
 10
        0.61343
 20
        0.13323
 30
        4.12000
 11
       -0.60302
 21
       -4.40662
 31
        4.12000
 12
       -2.46726
 22
       -3.90710
 32
        4.12000
 13
       -1.25081
 23
        0.63275
 33
        4.12000
999
ROOFS0:ROOFS0_FLOOR_0_0_0_0_0_0_HOLE
  0
3DFACE
  8
ROOFS0
 62
 45
 10
        0.60976
 20
        0.13111
 30
        4.12000
 11
       -0.60514
 21
       -4.40295
 31
        4.12000
 12
       -2.46358
 22
       -3.90498
 32
        4.12000
 13
       -1.24869
 23
        0.62907
 33
        4.12000
999
ROOFS0:ROOFS0_FLOOR_0_1_0
  0
3DFACE
  8
ROOFS0
 62
  8
 10
        4.81521
 20
       -0.99264
 30
        4.12000
 11
        3.59876
 21
       -5.53249
 31
        4.12000
 12
       -0.60302
 22
       -4.40662
 32
        4.12000
 13
        0.61343
 23
        0.13323
 33
        4.12000
999
ROOFS0:ROOFS0_FLOOR_0_1_0_0_0_1_HOLE
  0
3DFACE
  8
ROOFS0
 62
 45
 10
        4.81153
 20
       -0.99476
 30
        4.12000
 11
        3.59664
 21
       -5.52881
 31
        4.12000
 12
       -0.59935
 22
       -4.40450
 32
        4.12000
 13
        0.61555
 23
        0.12955
 33
        4.12000
999
ROOFS0:ROOFS0_FLOOR_0_2_0
  0
3DFACE
  8
ROOFS0
 62
  8
 10
       -1.25081
 20
        0.63275
 30
        4.12000
 11
       -2.46726
 21
       -3.90710
 31
        4.12000
 12
       -6.66903
 22
       -2.78124
 32
        4.12000
 13
       -5.45258
 23
        1.75861
 33
        4.12000
999
ROOFS0:ROOFS0_FLOOR_0_2_0_0_0_2_HOLE
  0
3DFACE
  8
ROOFS0
 62
 45
 10
       -1.25448
 20
        0.63063
 30
        4.12000
 11
       -2.46938
 21
       -3.90343
 31
        4.12000
 12
       -6.66536
 22
       -2.77912
 32
        4.12000
 13
       -5.45046
 23
        1.75494
 33
        4.12000
999
ROOFS0:ROOFS0_ROOF_1_0_0
  0
3DFACE
  8
ROOFS0
 62
 15
 10
       -4.04832
 20
       -2.00301
 30
        5.42000
 11
       -6.66903
 21
       -2.78124
 31
        4.12000
 12
        3.59876
 22
       -5.53249
 32
        4.12000
 13
        1.45746
 23
       -3.47828
 33
        5.42000
999
ROOFS0:ROOFS0_ROOF_2_0_0
  0
3DFACE
  8
ROOFS0
 62
 15
 10
       -3.81538
 20
       -1.13368
 30
        5.42000
 11
       -5.45258
 21
        1.75861
 31
        4.12000
 12
       -6.66903
 22
       -2.78124
 32
        4.12000
 13
       -4.04832
 23
       -2.00301
 33
        5.42000
999
ROOFS0:ROOFS0_ROOF_3_0_0
  0
3DFACE
  8
ROOFS0
 62
 15
 10
        1.45746
 20
       -3.47828
 30
        5.42000
 11
        3.59876
 21
       -5.53249
 31
        4.12000
 12
        4.81521
 22
       -0.99264
 32
        4.12000
 13
        1.69040
 23
       -2.60895
 33
        5.42000
999
ROOFS0:ROOFS0_ROOF_4_0_0
  0
3DFACE
  8
ROOFS0
 62
 15
 10
        1.69040
 20
       -2.60895
 30
        5.42000
 11
        4.81521
 21
       -0.99264
 31
        4.12000
 12
       -5.45258
 22
        1.75861
 32
        4.12000
 13
       -3.81538
 23
       -1.13368
 33
        5.42000
999
ROOFS0:ROOFS0_ROOF_5_0_0
  0
3DFACE
  8
ROOFS0
 62
 15
 10
       -3.81538
 20
       -1.13368
 30
        5.42000
 11
       -4.04832
 21
       -2.00301
 31
        5.42000
 12
        1.45746
 22
       -3.47828
 32
        5.42000
 13
        1.69040
 23
       -2.60895
 33
        5.42000
999
ROOFS4:ROOFS4_FLOOR_0_0_0
  0
3DFACE
  8
ROOFS4
 62
  8
 10
        5.61123
 20
       18.78526
 30
        4.12000
 11
        4.34042
 21
       14.04256
 31
        4.12000
 12
        2.47619
 22
       14.54208
 32
        4.12000
 13
        3.74699
 23
       19.28478
 33
        4.12000
999
ROOFS4:ROOFS4_FLOOR_0_0_0_0_0_0_HOLE
  0
3DFACE
  8
ROOFS4
 62
 45
 10
        5.60755
 20
       18.78313
 30
        4.12000
 11
        4.33830
 21
       14.04623
 31
        4.12000
 12
        2.47986
 22
       14.54420
 32
        4.12000
 13
        3.74911
 23
       19.28110
 33
        4.12000
999
ROOFS4:ROOFS4_FLOOR_0_1_0
  0
3DFACE
  8
ROOFS4
 62
  8
 10
        9.81300
 20
       17.65939
 30
        4.12000
 11
        8.54220
 21
       12.91670
 31
        4.12000
 12
        4.34042
 22
       14.04256
 32
        4.12000
 13
        5.61123
 23
       18.78526
 33
        4.12000
999
ROOFS4:ROOFS4_FLOOR_0_1_0_0_0_1_HOLE
  0
3DFACE
  8
ROOFS4
 62
 45
 10
        9.80933
 20
       17.65727
 30
        4.12000
 11
        8.54008
 21
       12.92037
 31
        4.12000
 12
        4.34410
 22
       14.04468
 32
        4.12000
 13
        5.61335
 23
       18.78158
 33
        4.12000
999
ROOFS4:ROOFS4_FLOOR_0_2_0
  0
3DFACE
  8
ROOFS4
 62
  8
 10
        3.74699
 20
       19.28478
 30
        4.12000
 11
        2.47619
 21
       14.54208
 31
        4.12000
 12
       -1.72559
 22
       15.66794
 32
        4.12000
 13
       -0.45479
 23
       20.41064
 33
        4.12000
999
ROOFS4:ROOFS4_FLOOR_0_2_0_0_0_2_HOLE
  0
3DFACE
  8
ROOFS4
 62
 45
 10
        3.74331
 20
       19.28265
 30
        4.12000
 11
        2.47407
 21
       14.54575
 31
        4.12000
 12
       -1.72192
 22
       15.67006
 32
        4.12000
 13
       -0.45267
 23
       20.40696
 33
        4.12000
999
ROOFS4:ROOFS4_ROOF_1_0_0
  0
3DFACE
  8
ROOFS4
 62
 15
 10
        1.14359
 20
       17.37346
 30
        5.42000
 11
       -0.45479
 21
       20.41064
 31
        4.12000
 12
       -1.72559
 22
       15.66794
 32
        4.12000
 13
        0.91066
 23
       16.50412
 33
        5.42000
999
ROOFS4:ROOFS4_ROOF_2_0_0
  0
3DFACE
  8
ROOFS4
 62
 15
 10
        0.91066
 20
       16.50412
 30
        5.42000
 11
       -1.72559
 21
       15.66794
 31
        4.12000
 12
        8.54220
 22
       12.91670
 32
        4.12000
 13
        6.41643
 23
       15.02886
 33
        5.42000
999
ROOFS4:ROOFS4_ROOF_3_0_0
  0
3DFACE
  8
ROOFS4
 62
 15
 10
        6.41643
 20
       15.02886
 30
        5.42000
 11
        8.54220
 21
       12.91670
 31
        4.12000
 12
        9.81300
 22
       17.65939
 32
        4.12000
 13
        6.64937
 23
       15.89819
 33
        5.42000
999
ROOFS4:ROOFS4_ROOF_4_0_0
  0
3DFACE
  8
ROOFS4
 62
 15
 10
        6.64937
 20
       15.89819
 30
        5.42000
 11
        9.81300
 21
       17.65939
 31
        4.12000
 12
       -0.45479
 22
       20.41064
 32
        4.12000
 13
        1.14359
 23
       17.37346
 33
        5.42000
999
ROOFS4:ROOFS4_ROOF_5_0_0
  0
3DFACE
  8
ROOFS4
 62
 15
 10
        1.14359
 20
       17.37346
 30
        5.42000
 11
        0.91066
 21
       16.50412
 31
        5.42000
 12
        6.41643
 22
       15.02886
 32
        5.42000
 13
        6.64937
 23
       15.89819
 33
        5.42000
999
ROOFN0:ROOFN0_FLOOR_0_0_0
  0
3DFACE
  8
ROOFN0
 62
  8
 10
        6.90532
 20
       23.61488
 30
        4.12000
 11
        5.61123
 21
       18.78526
 31
        4.12000
 12
        3.74699
 22
       19.28478
 32
        4.12000
 13
        5.04108
 23
       24.11440
 33
        4.12000
999
ROOFN0:ROOFN0_FLOOR_0_0_0_0_0_0_HOLE
  0
3DFACE
  8
ROOFN0
 62
 45
 10
        6.90165
 20
       23.61276
 30
        4.12000
 11
        5.60910
 21
       18.78893
 31
        4.12000
 12
        3.75066
 22
       19.28690
 32
        4.12000
 13
        5.04320
 23
       24.11073
 33
        4.12000
999
ROOFN0:ROOFN0_FLOOR_0_1_0
  0
3DFACE
  8
ROOFN0
 62
  8
 10
       18.05210
 20
       20.62811
 30
        4.12000
 11
       16.75801
 21
       15.79848
 31
        4.12000
 12
        5.61123
 22
       18.78526
 32
        4.12000
 13
        6.90532
 23
       23.61488
 33
        4.12000
999
ROOFN0:ROOFN0_FLOOR_0_1_0_0_0_1_HOLE
  0
3DFACE
  8
ROOFN0
 62
 45
 10
       18.04843
 20
       20.62599
 30
        4.12000
 11
       16.75589
 21
       15.80216
 31
        4.12000
 12
        5.61490
 22
       18.78738
 32
        4.12000
 13
        6.90744
 23
       23.61121
 33
        4.12000
999
ROOFN0:ROOFN0_FLOOR_0_2_0
  0
3DFACE
  8
ROOFN0
 62
  8
 10
        5.04108
 20
       24.11440
 30
        4.12000
 11
        3.74699
 21
       19.28478
 31
        4.12000
 12
       -0.45479
 22
       20.41064
 32
        4.12000
 13
        0.83931
 23
       25.24027
 33
        4.12000
999
ROOFN0:ROOFN0_FLOOR_0_2_0_0_0_2_HOLE
  0
3DFACE
  8
ROOFN0
 62
 45
 10
        4.07148
 20
       24.37110
 30
        4.12000
 11
        2.77894
 21
       19.54727
 31
        4.12000
 12
       -0.45111
 22
       20.41276
 32
        4.12000
 13
        0.84143
 23
       25.23659
 33
        4.12000
999
ROOFN0:ROOFN0_ROOF_1_0_0
  0
3DFACE
  8
ROOFN0
 62
 15
 10
        2.40233
 20
       22.26432
 30
        5.42000
 11
        0.83931
 21
       25.24027
 31
        4.12000
 12
       -0.45479
 22
       20.41064
 32
        4.12000
 13
        2.16940
 23
       21.39499
 33
        5.42000
999
ROOFN0:ROOFN0_ROOF_2_0_0
  0
3DFACE
  8
ROOFN0
 62
 15
 10
        2.16940
 20
       21.39499
 30
        5.42000
 11
       -0.45479
 21
       20.41064
 31
        4.12000
 12
       16.75801
 22
       15.79848
 32
        4.12000
 13
       14.53325
 23
       18.08211
 33
        5.42000
999
ROOFN0:ROOFN0_ROOF_2_0_0_0_0_0_WIN
  0
3DFACE
  8
ROOFN0
 62
143
 10
       11.46833
 20
[...]
       30.43420
 30
        2.73800
 11
       20.67964
 21
       30.43420
 31
        2.27200
 12
       21.09418
 22
       31.98129
 32
        2.27200
 13
       21.09418
 23
       31.98129
 33
        2.73800
999
OFF-ANNIE:OFF-ANNIE_WALL_MULL_TOPSOU
  0
3DFACE
  8
OFF-ANNIE
 62
 43
 10
       20.67751
 20
       30.42625
 30
        4.12000
 11
       20.67751
 21
       30.42625
 31
        3.92000
 12
       21.10764
 22
       32.03151
 32
        3.92000
 13
       21.10764
 23
       32.03151
 33
        4.12000
999
OFF-ANNIE:OFF-ANNIE_WALL_MULL_SOU
  0
3DFACE
  8
OFF-ANNIE
 62
 43
 10
       20.64127
 20
       30.29102
 30
        4.12000
 11
       20.64127
 21
       30.29102
 31
        1.12000
 12
       20.67751
 22
       30.42625
 32
        1.12000
 13
       20.67751
 23
       30.42625
 33
        4.12000
999
OFF-ANNIE:OFF-ANNIE_WALL_14_0_0
  0
3DFACE
  8
OFF-ANNIE
 62
 43
 10
       21.10764
 20
       32.03151
 30
        4.12000
 11
       21.10764
 21
       32.03151
 31
        1.12000
 12
       21.13352
 22
       32.12811
 32
        1.12000
 13
       21.13352
 23
       32.12811
 33
        4.12000
999
OFF-ANNIE:OFF-ANNIE_FLOOR_0_0_10020
  0
3DFACE
  8
OFF-ANNIE
 62
  8
 10
       21.93417
 20
       35.11706
 30
        1.12000
 11
       20.64127
 21
       30.29102
 31
        1.12000
 12
       16.43927
 22
       31.41694
 32
        1.12000
 13
       17.73239
 23
       36.24292
 33
        1.12000
999
OFF-ANNIE:OFF-ANNIE_CEILING_1_0_10061
  0
3DFACE
  8
OFF-ANNIE
 62
 15
 10
       17.73239
 20
       36.24292
 30
        4.12000
 11
       16.43927
 21
       31.41694
 31
        4.12000
 12
       20.64127
 22
       30.29102
 32
        4.12000
 13
       21.93417
 23
       35.11706
 33
        4.12000
999
OFF-ANNIE:OFF-ANNIE_CEILING_1_0_0_0_0_0_HOLE_10063
  0
3DFACE
  8
OFF-ANNIE
 62
 45
 10
       17.73380
 20
       36.24047
 30
        4.12000
 11
       16.44172
 21
       31.41836
 31
        4.12000
 12
       20.63964
 22
       30.29353
 32
        4.12000
 13
       21.93172
 23
       35.11564
 33
        4.12000
999
LARGECONF0:LARGECONF0_PARTITION_SOUTH_WEST
  0
3DFACE
  8
LARGECONF0
 62
 43
 10
        2.13340
 20
       30.06990
 30
        1.12000
 11
        2.13340
 21
       30.06990
 31
        4.12000
 12
        6.33518
 22
       28.94403
 32
        4.12000
 13
        6.33518
 23
       28.94403
 33
        1.12000
999
LARGECONF0:LARGECONF0_PARTITION_SOUTH_WEST_HOLE
  0
3DFACE
  8
LARGECONF0
 62
 45
 10
        2.13437
 20
       30.06964
 30
        1.12000
 11
        2.13437
 21
       30.06964
 31
        4.12000
 12
        6.33518
 22
       28.94403
 32
        4.12000
 13
        6.33518
 23
       28.94403
 33
        1.12000
999
LARGECONF0:LARGECONF0_PARTITION_SOUTH_MIDDLE
  0
3DFACE
  8
LARGECONF0
 62
 43
 10
        8.19942
 20
       28.44451
 30
        1.12000
 11
        8.19942
 21
       28.44451
 31
        4.12000
 12
        6.33518
 22
       28.94403
 32
        4.12000
 13
        6.33518
 23
       28.94403
 33
        1.12000
999
LARGECONF0:LARGECONF0_PARTITION_SOUTH_MIDDLE_HOLE
  0
3DFACE
  8
LARGECONF0
 62
 45
 10
        8.19942
 20
       28.44451
 30
        1.12000
 11
        8.19942
 21
       28.44451
 31
        4.12000
 12
        6.33614
 22
       28.94378
 32
        4.12000
 13
        6.33614
 23
       28.94378
 33
        1.12000
999
LARGECONF0:LARGECONF0_PARTITION_NORTH
  0
3DFACE
  8
LARGECONF0
 62
 43
 10
        3.42750
 20
       34.89953
 30
        1.12000
 11
        3.42750
 21
       34.89953
 31
        4.12000
 12
       16.43830
 22
       31.41329
 32
        4.12000
 13
       16.43830
 23
       31.41329
 33
        1.12000
999
LARGECONF0:LARGECONF0_PARTITION_NORTH_HOLE
  0
3DFACE
  8
LARGECONF0
 62
 45
 10
        3.42846
 20
       34.89927
 30
        1.12000
 11
        3.42846
 21
       34.89927
 31
        4.12000
 12
       16.43830
 22
       31.41329
 32
        4.12000
 13
       16.43830
 23
       31.41329
 33
        1.12000
999
LARGECONF0:LARGECONF0_PARTITION_EAST
  0
3DFACE
  8
LARGECONF0
 62
 43
 10
       15.14420
 20
       26.58366
 30
        1.12000
 11
       15.14420
 21
       26.58366
 31
        4.12000
 12
       16.43830
 22
       31.41329
 32
        4.12000
 13
       16.43830
 23
       31.41329
 33
        1.12000
999
LARGECONF0:LARGECONF0_PARTITION_EAST_HOLE
  0
3DFACE
  8
LARGECONF0
 62
 45
 10
       15.14446
 20
       26.58463
 30
        1.12000
 11
       15.14446
 21
       26.58463
 31
        4.12000
 12
       16.43830
 22
       31.41329
 32
        4.12000
 13
       16.43830
 23
       31.41329
 33
        1.12000
999
LARGECONF0:LARGECONF0_PARTITION_SOUTH_EAST
  0
3DFACE
  8
LARGECONF0
 62
 43
 10
       15.14130
 20
       26.58444
 30
        1.12000
 11
       15.14130
 21
       26.58444
 31
        4.12000
 12
        8.19942
 22
       28.44451
 32
        4.12000
 13
        8.19942
 23
       28.44451
 33
        1.12000
999
LARGECONF0:LARGECONF0_PARTITION_SOUTH_EAST_HOLE
  0
3DFACE
  8
LARGECONF0
 62
 45
 10
       15.14034
 20
       26.58470
 30
        1.12000
 11
       15.14034
 21
       26.58470
 31
        4.12000
 12
        8.20038
 22
       28.44425
 32
        4.12000
 13
        8.20038
 23
       28.44425
 33
        1.12000
999
LARGECONF0:LARGECONF0_WALL_4_0_0
  0
3DFACE
  8
LARGECONF0
 62
 43
 10
        3.39224
 20
       34.76795
 30
        3.92000
 11
        3.39224
 21
       34.76795
 31
        1.12000
 12
        2.93623
 22
       33.06609
 32
        1.12000
 13
        2.93623
 23
       33.06609
 33
        3.92000
999
LARGECONF0:LARGECONF0_WALL_4_0_0_0_0_0_WIN
  0
3DFACE
  8
LARGECONF0
 62
143
 10
        3.38913
 20
       34.75636
 30
        3.86800
 11
        3.38913
 21
       34.75636
 31
        2.84200
 12
        2.94969
 22
       33.11632
 32
        2.84200
 13
        2.94969
 23
       33.11632
 33
        3.86800
999
LARGECONF0:LARGECONF0_WALL_4_0_0_1_0_1_WIN
  0
3DFACE
  8
LARGECONF0
 62
143
 10
        3.38913
 20
       34.75636
 30
        2.73800
 11
        3.38913
 21
       34.75636
 31
        2.27200
 12
        2.94969
 22
       33.11632
 32
        2.27200
 13
        2.94969
 23
       33.11632
 33
        2.73800
999
LARGECONF0:LARGECONF0_WALL_MULL_TOPNOR
  0
3DFACE
  8
LARGECONF0
 62
 43
 10
        3.39224
 20
       34.76795
 30
        4.12000
 11
        3.39224
 21
       34.76795
 31
        3.92000
 12
        2.93623
 22
       33.06609
 32
        3.92000
 13
        2.93623
 23
       33.06609
 33
        4.12000
999
LARGECONF0:LARGECONF0_WALL_MULL_NOR
  0
3DFACE
  8
LARGECONF0
 62
 43
 10
        3.42847
 20
       34.90318
 30
        4.12000
 11
        3.42847
 21
       34.90318
 31
        1.12000
 12
        3.39224
 22
       34.76795
 32
        1.12000
 13
        3.39224
 23
       34.76795
 33
        4.12000
999
LARGECONF0:LARGECONF0_WALL_5_0_0
  0
3DFACE
  8
LARGECONF0
 62
 43
 10
        2.93623
 20
       33.06609
 30
        4.12000
 11
        2.93623
 21
       33.06609
 31
        1.12000
 12
        2.91035
 22
       32.96950
 32
        1.12000
 13
        2.91035
 23
       32.96950
 33
        4.12000
999
LARGECONF0:LARGECONF0_WALL_6_0_0
  0
3DFACE
  8
LARGECONF0
 62
 43
 10
        2.91035
 20
       32.96950
 30
        3.92000
 11
        2.91035
 21
       32.96950
 31
        1.12000
 12
        2.65153
 22
       32.00357
 32
        1.12000
 13
        2.65153
 23
       32.00357
 33
        3.92000
999
LARGECONF0:LARGECONF0_WALL_6_0_0_0_0_0_WIN
  0
3DFACE
  8
LARGECONF0
 62
143
 10
        2.89689
 20
       32.91927
 30
        2.16800
 11
        2.89689
 21
       32.91927
 31
        1.17200
 12
        2.66499
 22
       32.05380
 32
        1.17200
 13
        2.66499
 23
       32.05380
 33
        2.16800
999
LARGECONF0:LARGECONF0_WALL_6_0_0_1_0_1_WIN
  0
3DFACE
  8
LARGECONF0
 62
143
 10
        2.89689
 20
       32.91927
 30
        3.86800
 11
        2.89689
 21
       32.91927
 31
        2.84200
 12
        2.66499
 22
       32.05380
 32
        2.84200
 13
        2.66499
 23
       32.05380
 33
        3.86800
999
LARGECONF0:LARGECONF0_WALL_6_0_0_2_0_2_WIN
  0
3DFACE
  8
LARGECONF0
 62
143
 10
        2.89689
 20
       32.91927
 30
        2.73800
 11
        2.89689
 21
       32.91927
 31
        2.27200
 12
        2.66499
 22
       32.05380
 32
        2.27200
 13
        2.66499
 23
       32.05380
 33
        2.73800
999
LARGECONF0:LARGECONF0_WALL_MULL_TOPMID
  0
3DFACE
  8
LARGECONF0
 62
 43
 10
        2.91035
 20
       32.96950
 30
        4.12000
 11
        2.91035
 21
       32.96950
 31
        3.92000
 12
        2.65153
 22
       32.00357
 32
        3.92000
 13
        2.65153
 23
       32.00357
 33
        4.12000
999
LARGECONF0:LARGECONF0_WALL_7_0_0
  0
3DFACE
  8
LARGECONF0
 62
 43
 10
        2.65153
 20
       32.00357
 30
        4.12000
 11
        2.65153
 21
       32.00357
 31
        1.12000
 12
        2.62565
 22
       31.90698
 32
        1.12000
 13
        2.62565
 23
       31.90698
 33
        4.12000
999
LARGECONF0:LARGECONF0_WALL_8_0_0
  0
3DFACE
  8
LARGECONF0
 62
 43
 10
        2.62565
 20
       31.90698
 30
        3.92000
 11
        2.62565
 21
       31.90698
 31
        1.12000
 12
        2.16964
 22
       30.20513
 32
        1.12000
 13
        2.16964
 23
       30.20513
 33
        3.92000
999
LARGECONF0:LARGECONF0_WALL_8_0_0_0_0_0_WIN
  0
3DFACE
  8
LARGECONF0
 62
143
 10
        2.61219
 20
       31.85675
 30
        3.86800
 11
        2.61219
 21
       31.85675
 31
        2.84200
 12
        2.17274
 22
       30.21672
 32
        2.84200
 13
        2.17274
 23
       30.21672
 33
        3.86800
999
LARGECONF0:LARGECONF0_WALL_8_0_0_1_0_1_WIN
  0
3DFACE
  8
LARGECONF0
 62
143
 10
        2.61219
 20
       31.85675
 30
        2.73800
 11
        2.61219
 21
       31.85675
 31
        2.27200
 12
        2.17274
 22
       30.21672
 32
        2.27200
 13
        2.17274
 23
       30.21672
 33
        2.73800
999
LARGECONF0:LARGECONF0_WALL_MULL_TOPSOU
  0
3DFACE
  8
LARGECONF0
 62
 43
 10
        2.62565
 20
       31.90698
 30
        4.12000
 11
        2.62565
 21
       31.90698
 31
        3.92000
 12
        2.16964
 22
       30.20513
 32
        3.92000
 13
        2.16964
 23
       30.20513
 33
        4.12000
999
LARGECONF0:LARGECONF0_WALL_MULL_SOU
  0
3DFACE
  8
LARGECONF0
 62
 43
 10
        2.16964
 20
       30.20513
 30
        4.12000
 11
        2.16964
 21
       30.20513
 31
        1.12000
 12
        2.13340
 22
       30.06990
 32
        1.12000
 13
        2.13340
 23
       30.06990
 33
        4.12000
999
LARGECONF0:LARGECONF0_FLOOR_0_0_10021
  0
3DFACE
  8
LARGECONF0
 62
  8
 10
       16.43927
 20
       31.41694
 30
        1.12000
 11
       15.14420
 21
       26.58366
 31
        1.12000
 12
        2.13340
 22
       30.06990
 32
        1.12000
 13
        3.42847
 23
       34.90318
 33
        1.12000
999
LARGECONF0:LARGECONF0_CEILING_1_0_10071
  0
3DFACE
  8
LARGECONF0
 62
 15
 10
        3.42750
 20
       34.89953
 30
        4.12000
 11
        2.13340
 21
       30.06990
 31
        4.12000
 12
       15.14420
 22
       26.58366
 32
        4.12000
 13
       16.43830
 23
       31.41329
 33
        4.12000
999
LARGECONF0:LARGECONF0_CEILING_1_0_0_0_0_0_HOLE_10073
  0
3DFACE
  8
LARGECONF0
 62
 45
 10
        3.42962
 20
       34.89585
 30
        4.12000
 11
        2.13708
 21
       30.07202
 31
        4.12000
 12
       15.14208
 22
       26.58734
 32
        4.12000
 13
       16.43462
 23
       31.41117
 33
        4.12000
999
OFF-SUREKHA:SUREKHA_PARTITION_WEST
  0
3DFACE
  8
OFF-SUREKHA
 62
 43
 10
       16.43830
 20
       31.41329
 30
        1.12000
 11
       16.43830
 21
       31.41329
 31
        4.12000
 12
       15.14420
 22
       26.58366
 32
        4.12000
 13
       15.14420
 23
       26.58366
 33
        1.12000
999
OFF-SUREKHA:SUREKHA_PARTITION_WEST_HOLE
  0
3DFACE
  8
OFF-SUREKHA
 62
 45
 10
       16.43830
 20
       31.41329
 30
        1.12000
 11
       16.43830
 21
       31.41329
 31
        4.12000
 12
       15.14446
 22
       26.58463
 32
        4.12000
 13
       15.14446
 23
       26.58463
 33
        1.12000
999
OFF-SUREKHA:SUREKHA_PARTITION_NORTH
  0
3DFACE
  8
OFF-SUREKHA
 62
 43
 10
       16.43830
 20
       31.41329
 30
        1.12000
 11
       16.43830
 21
       31.41329
 31
        4.12000
 12
       20.64029
 22
       30.28737
 32
        4.12000
 13
       20.64029
 23
       30.28737
 33
        1.12000
999
OFF-SUREKHA:SUREKHA_PARTITION_NORTH_HOLE
  0
3DFACE
  8
OFF-SUREKHA
 62
 45
 10
       16.43926
 20
       31.41303
 30
        1.12000
 11
       16.43926
 21
       31.41303
 31
        4.12000
 12
       20.64029
 22
       30.28737
 32
        4.12000
 13
       20.64029
 23
       30.28737
 33
        1.12000
999
OFF-SUREKHA:SUREKHA_PARTITION_SOUTH
  0
3DFACE
  8
OFF-SUREKHA
 62
 43
 10
       15.14420
 20
       26.58366
 30
        1.12000
 11
       15.14420
 21
       26.58366
 31
        4.12000
 12
       19.34620
 22
       25.45774
 32
        4.12000
 13
       19.34620
 23
       25.45774
 33
        1.12000
999
OFF-SUREKHA:SUREKHA_PARTITION_SOUTH_HOLE
  0
3DFACE
  8
OFF-SUREKHA
 62
 45
 10
       15.14517
 20
       26.58341
 30
        1.12000
 11
       15.14517
 21
       26.58341
 31
        4.12000
 12
       19.34620
 22
       25.45774
 32
        4.12000
 13
       19.34620
 23
       25.45774
 33
        1.12000
999
OFF-SUREKHA:OFF-SUREKHA_WALL_2_0_0
  0
3DFACE
  8
OFF-SUREKHA
 62
 43
 10
       19.83845
 20
       27.29483
 30
        3.92000
 11
       19.83845
 21
       27.29483
 31
        1.12000
 12
       20.14903
 22
       28.45394
 32
        1.12000
 13
       20.14903
 23
       28.45394
 33
        3.92000
999
OFF-SUREKHA:OFF-SUREKHA_WALL_2_0_0_0_0_0_WIN
  0
3DFACE
  8
OFF-SUREKHA
 62
143
 10
       19.85190
 20
       27.34505
 30
        2.16800
 11
       19.85190
 21
       27.34505
 31
        1.17200
 12
       20.13557
 22
       28.40371
 32
        1.17200
 13
       20.13557
 23
       28.40371
 33
        2.16800
999
OFF-SUREKHA:OFF-SUREKHA_WALL_2_0_0_1_0_1_WIN
  0
3DFACE
  8
OFF-SUREKHA
 62
143
 10
       19.85190
 20
       27.34505
 30
        3.86800
 11
       19.85190
 21
       27.34505
 31
        2.84200
 12
       20.13557
 22
       28.40371
 32
        2.84200
 13
       20.13557
 23
       28.40371
 33
        3.86800
999
OFF-SUREKHA:OFF-SUREKHA_WALL_2_0_0_2_0_2_WIN
  0
3DFACE
  8
OFF-SUREKHA
 62
143
 10
       19.85190
 20
       27.34505
 30
        2.73800
 11
       19.85190
 21
       27.34505
 31
        2.27200
 12
       20.13557
 22
       28.40371
 32
        2.27200
 13
       20.13557
 23
       28.40371
 33
        2.73800
999
OFF-SUREKHA:OFF-SUREKHA_WALL_MULL_TOPMID
  0
3DFACE
  8
OFF-SUREKHA
 62
 43
 10
       19.83845
 20
       27.29483
 30
        4.12000
 11
       19.83845
 21
       27.29483
 31
        3.92000
 12
       20.14903
 22
       28.45394
 32
        3.92000
 13
       20.14903
 23
       28.45394
 33
        4.12000
999
OFF-SUREKHA:OFF-SUREKHA_WALL_3_0_0
  0
3DFACE
  8
OFF-SUREKHA
 62
 43
 10
       20.14903
 20
       28.45394
 30
        4.12000
 11
       20.14903
 21
       28.45394
 31
        1.12000
 12
       20.17491
 22
       28.55053
 32
        1.12000
 13
       20.17491
 23
       28.55053
 33
        4.12000
999
OFF-SUREKHA:OFF-SUREKHA_WALL_4_0_0
  0
3DFACE
  8
OFF-SUREKHA
 62
 43
 10
       20.17491
 20
       28.55053
 30
        3.92000
 11
       20.17491
 21
       28.55053
 31
        1.12000
 12
       20.60504
 22
       30.15579
 32
        1.12000
 13
       20.60504
 23
       30.15579
 33
        3.92000
999
OFF-SUREKHA:OFF-SUREKHA_WALL_4_0_0_0_0_0_WIN
  0
3DFACE
  8
OFF-SUREKHA
 62
143
 10
       20.18837
 20
       28.60076
 30
        3.86800
 11
       20.18837
 21
       28.60076
 31
        2.84200
 12
       20.60096
 22
       30.14056
 32
        2.84200
 13
       20.60096
 23
       30.14056
 33
        3.86800
999
OFF-SUREKHA:OFF-SUREKHA_WALL_4_0_0_1_0_1_WIN
  0
3DFACE
  8
OFF-SUREKHA
 62
143
 10
       20.18837
 20
       28.60076
 30
        2.73800
 11
       20.18837
 21
       28.60076
 31
        2.27200
 12
       20.60096
 22
       30.14056
 32
        2.27200
 13
       20.60096
 23
       30.14056
 33
        2.73800
999
OFF-SUREKHA:OFF-SUREKHA_WALL_MULL_TOPNOR
  0
3DFACE
  8
OFF-SUREKHA
 62
 43
 10
       20.17491
 20
       28.55053
 30
        4.12000
 11
       20.17491
 21
       28.55053
 31
        3.92000
 12
       20.60504
 22
       30.15579
 32
        3.92000
 13
       20.60504
 23
       30.15579
 33
        4.12000
999
OFF-SUREKHA:OFF-SUREKHA_WALL_MULL_NOR
  0
3DFACE
  8
OFF-SUREKHA
 62
 43
 10
       20.60504
 20
       30.15579
 30
        4.12000
 11
       20.60504
 21
       30.15579
 31
        1.12000
 12
       20.64127
 22
       30.29102
 32
        1.12000
 13
       20.64127
 23
       30.29102
 33
        4.12000
999
OFF-SUREKHA:OFF-SUREKHA_WALL_8_0_0
  0
3DFACE
  8
OFF-SUREKHA
 62
 43
 10
       19.38243
 20
       25.59297
 30
        3.92000
 11
       19.38243
 21
       25.59297
 31
        1.12000
 12
       19.81256
 22
       27.19823
 32
        1.12000
 13
       19.81256
 23
       27.19823
 33
        3.92000
999
OFF-SUREKHA:OFF-SUREKHA_WALL_8_0_0_0_0_0_WIN
  0
3DFACE
  8
OFF-SUREKHA
 62
143
 10
       19.38554
 20
       25.60456
 30
        3.86800
 11
       19.38554
 21
       25.60456
 31
        2.84200
 12
       19.79910
 22
       27.14801
 32
        2.84200
 13
       19.79910
 23
       27.14801
 33
        3.86800
999
OFF-SUREKHA:OFF-SUREKHA_WALL_8_0_0_1_0_1_WIN
  0
3DFACE
  8
OFF-SUREKHA
 62
143
 10
       19.38554
 20
       25.60456
 30
        2.73800
 11
       19.38554
 21
       25.60456
 31
        2.27200
 12
       19.79910
 22
       27.14801
 32
        2.27200
 13
       19.79910
 23
       27.14801
 33
        2.73800
999
OFF-SUREKHA:OFF-SUREKHA_WALL_MULL_TOPSOU
  0
3DFACE
  8
OFF-SUREKHA
 62
 43
 10
       19.38243
 20
       25.59297
 30
        4.12000
 11
       19.38243
 21
       25.59297
 31
        3.92000
 12
       19.81256
 22
       27.19823
 32
        3.92000
 13
       19.81256
 23
       27.19823
 33
        4.12000
999
OFF-SUREKHA:OFF-SUREKHA_WALL_MULL_SOU
  0
3DFACE
  8
OFF-SUREKHA
 62
 43
 10
       19.34620
 20
       25.45774
 30
        4.12000
 11
       19.34620
 21
       25.45774
 31
        1.12000
 12
       19.38243
 22
       25.59297
 32
        1.12000
 13
       19.38243
 23
       25.59297
 33
        4.12000
999
OFF-SUREKHA:OFF-SUREKHA_WALL_9_0_0
  0
3DFACE
  8
OFF-SUREKHA
 62
 43
 10
       19.81256
 20
       27.19823
 30
        4.12000
 11
       19.81256
 21
       27.19823
 31
        1.12000
 12
       19.83845
 22
       27.29483
 32
        1.12000
 13
       19.83845
 23
       27.29483
 33
        4.12000
999
OFF-SUREKHA:OFF-SUREKHA_FLOOR_0_0_10022
  0
3DFACE
  8
OFF-SUREKHA
 62
  8
 10
       20.64127
 20
       30.29102
 30
        1.12000
 11
       19.34620
 21
       25.45774
 31
        1.12000
 12
       15.14420
 22
       26.58366
 32
        1.12000
 13
       16.43927
 23
       31.41694
 33
        1.12000
999
OFF-SUREKHA:OFF-SUREKHA_CEILING_1_0_10073
  0
3DFACE
  8
OFF-SUREKHA
 62
 15
 10
       16.43830
 20
       31.41329
 30
        4.12000
 11
       15.14420
 21
       26.58366
 31
        4.12000
 12
       19.34620
 22
       25.45774
 32
        4.12000
 13
       20.64029
 23
       30.28737
 33
        4.12000
999
OFF-SUREKHA:OFF-SUREKHA_CEILING_1_0_0_0_0_0_HOLE_10075
  0
3DFACE
  8
OFF-SUREKHA
 62
 45
 10
       16.44042
 20
       31.40962
 30
        4.12000
 11
       15.14787
 21
       26.58579
 31
        4.12000
 12
       19.34408
 22
       25.46142
 32
        4.12000
 13
       20.63662
 23
       30.28525
 33
        4.12000
  0
ENDSEC
  0
EOF
