Program Version,EnergyPlus, Version 8.3.0-6d97d074ea, YMD=2017.09.25 02:56
! This file shows details about the branches, nodes, and other
! elements of the flow connections.
! This file is intended for use in "debugging" potential problems
! that may also be detected by the program, but may be more easily
! identified by "eye".
! This file is also intended to support software which draws a
! schematic diagram of the HVAC system.
! ===============================================================
! #Nodes,<Number of Unique Nodes>
 #Nodes,216
! <Node>,<NodeNumber>,<Node Name>,<Node Fluid Type>,<# Times Node Referenced After Definition>
 Node,1,DOAS DEMAND SIDE INLET 1,Air,3
 Node,2,DOAS SUPPLY SIDE OUTLET 1,Air,10
 Node,3,DOAS ZONE SPLITTER OUTLET NODE YUJIE,Air,3
 Node,4,DOAS ZONE SPLITTER OUTLET NODE BAPP,Air,3
 Node,5,DOAS ZONE SPLITTER OUTLET NODE WEILI,Air,3
 Node,6,DOAS ZONE SPLITTER OUTLET NODE JAMES,Air,3
 Node,7,DOAS ZONE SPLITTER OUTLET NODE VIVIAN,Air,3
 Node,8,DOAS ZONE SPLITTER OUTLET NODE OMER,Air,3
 Node,9,DOAS ZONE SPLITTER OUTLET NODE SMALLCONF,Air,3
 Node,10,DOAS ZONE SPLITTER OUTLET NODE NINA,Air,3
 Node,11,OFF-ZHIANG FAN COIL UNIT SUPPLY INLET,Air,3
 Node,12,OFF-ZHIANG FAN COIL UNIT RETURN,Air,3
 Node,13,OFF-CHENLU FAN COIL UNIT SUPPLY INLET,Air,3
 Node,14,OFF-CHENLU FAN COIL UNIT RETURN,Air,3
 Node,15,LARGECONF1 COOLED BEAM SUPPLY INLET,Air,3
 Node,16,OFF-ANNIE COOLED BEAM SUPPLY INLET,Air,3
 Node,17,LARGECONF0 COOLED BEAM SUPPLY INLET,Air,3
 Node,18,OFF-SUREKHA COOLED BEAM SUPPLY INLET,Air,3
 Node,19,TEMPHWLOOP SUPPLY SIDE OUTLET,Water,5
 Node,20,TEMPCHWLOOP SUPPLY SIDE OUTLET,Water,5
 Node,21,DOAS SUPPLY SIDE INLET,Air,2
 Node,22,DOAS AHU EXTRACT FAN AIR OUTLET NODE,Air,4
 Node,23,DOAS AHU MIXED AIR OUTLET,Air,6
 Node,24,DOAS AHU SUPPLY FAN OUTLET,Air,5
 Node,25,DOAS AHU UNITARY COOLING COIL DX COOLING COIL AIR OUTLET NODE,Air,5
 Node,26,TEMPHWLOOP DEMAND SIDE INLET,Water,2
 Node,27,TEMPHWLOOP DEMAND SIDE INLET BRANCH PIPE OUTLET,Water,1
 Node,28,TEMPHWLOOP DEMAND SIDE BYPASS PIPE INLET NODE,Water,1
 Node,29,TEMPHWLOOP DEMAND SIDE BYPASS PIPE OUTLET NODE,Water,1
 Node,30,BAS MULLION HOT WATER INLET NODE,Water,1
 Node,31,BAS MULLION HOT WATER OUTLET NODE,Water,1
 Node,32,BAS MULLION COLD WATER INLET NODE,Water,1
 Node,33,BAS MULLION COLD WATER OUTLET NODE,Water,1
 Node,34,OFF-VOLKER MULLION HOT WATER INLET NODE,Water,1
 Node,35,OFF-VOLKER MULLION HOT WATER OUTLET NODE,Water,1
 Node,36,OFF-VOLKER MULLION COLD WATER INLET NODE,Water,1
 Node,37,OFF-VOLKER MULLION COLD WATER OUTLET NODE,Water,1
 Node,38,OFF-ERICA MULLION HOT WATER INLET NODE,Water,1
 Node,39,OFF-ERICA MULLION HOT WATER OUTLET NODE,Water,1
 Node,40,OFF-ERICA MULLION COLD WATER INLET NODE,Water,1
 Node,41,OFF-ERICA MULLION COLD WATER OUTLET NODE,Water,1
 Node,42,LARGECONF1 MULLION HOT WATER INLET NODE,Water,1
 Node,43,LARGECONF1 MULLION HOT WATER OUTLET NODE,Water,1
 Node,44,LARGECONF1 MULLION COLD WATER INLET NODE,Water,1
 Node,45,LARGECONF1 MULLION COLD WATER OUTLET NODE,Water,1
 Node,46,OFF-ANNIE MULLION HOT WATER INLET NODE,Water,1
 Node,47,OFF-ANNIE MULLION HOT WATER OUTLET NODE,Water,1
 Node,48,OFF-ANNIE MULLION COLD WATER INLET NODE,Water,1
 Node,49,OFF-ANNIE MULLION COLD WATER OUTLET NODE,Water,1
 Node,50,LARGECONF0 MULLION HOT WATER INLET NODE,Water,1
 Node,51,LARGECONF0 MULLION HOT WATER OUTLET NODE,Water,1
 Node,52,LARGECONF0 MULLION COLD WATER INLET NODE,Water,1
 Node,53,LARGECONF0 MULLION COLD WATER OUTLET NODE,Water,1
 Node,54,OFF-SUREKHA MULLION HOT WATER INLET NODE,Water,1
 Node,55,OFF-SUREKHA MULLION HOT WATER OUTLET NODE,Water,1
 Node,56,OFF-SUREKHA MULLION COLD WATER INLET NODE,Water,1
 Node,57,OFF-SUREKHA MULLION COLD WATER OUTLET NODE,Water,1
 Node,58,STAIRNCOM MULLION HOT WATER INLET NODE,Water,1
 Node,59,STAIRNCOM MULLION HOT WATER OUTLET NODE,Water,1
 Node,60,STAIRNCOM MULLION COLD WATER INLET NODE,Water,1
 Node,61,STAIRNCOM MULLION COLD WATER OUTLET NODE,Water,1
 Node,62,OFF-YUJIE MULLION HOT WATER INLET NODE,Water,1
 Node,63,OFF-YUJIE MULLION HOT WATER OUTLET NODE,Water,1
 Node,64,OFF-YUJIE MULLION COLD WATER INLET NODE,Water,1
 Node,65,OFF-YUJIE MULLION COLD WATER OUTLET NODE,Water,1
 Node,66,OFF-BAPP MULLION HOT WATER INLET NODE,Water,1
 Node,67,OFF-BAPP MULLION HOT WATER OUTLET NODE,Water,1
 Node,68,OFF-BAPP MULLION COLD WATER INLET NODE,Water,1
 Node,69,OFF-BAPP MULLION COLD WATER OUTLET NODE,Water,1
 Node,70,OFF-WEILI MULLION HOT WATER INLET NODE,Water,1
 Node,71,OFF-WEILI MULLION HOT WATER OUTLET NODE,Water,1
 Node,72,OFF-WEILI MULLION COLD WATER INLET NODE,Water,1
 Node,73,OFF-WEILI MULLION COLD WATER OUTLET NODE,Water,1
 Node,74,OFF-JAMES MULLION HOT WATER INLET NODE,Water,1
 Node,75,OFF-JAMES MULLION HOT WATER OUTLET NODE,Water,1
 Node,76,OFF-JAMES MULLION COLD WATER INLET NODE,Water,1
 Node,77,OFF-JAMES MULLION COLD WATER OUTLET NODE,Water,1
 Node,78,OFF-VIVIAN MULLION HOT WATER INLET NODE,Water,1
 Node,79,OFF-VIVIAN MULLION HOT WATER OUTLET NODE,Water,1
 Node,80,OFF-VIVIAN MULLION COLD WATER INLET NODE,Water,1
 Node,81,OFF-VIVIAN MULLION COLD WATER OUTLET NODE,Water,1
 Node,82,OFF-OMER MULLION HOT WATER INLET NODE,Water,1
 Node,83,OFF-OMER MULLION HOT WATER OUTLET NODE,Water,1
 Node,84,OFF-OMER MULLION COLD WATER INLET NODE,Water,1
 Node,85,OFF-OMER MULLION COLD WATER OUTLET NODE,Water,1
 Node,86,SMALLCONF MULLION HOT WATER INLET NODE,Water,1
 Node,87,SMALLCONF MULLION HOT WATER OUTLET NODE,Water,1
 Node,88,SMALLCONF MULLION COLD WATER INLET NODE,Water,1
 Node,89,SMALLCONF MULLION COLD WATER OUTLET NODE,Water,1
 Node,90,OFF-NINA MULLION HOT WATER INLET NODE,Water,1
 Node,91,OFF-NINA MULLION HOT WATER OUTLET NODE,Water,1
 Node,92,OFF-NINA MULLION COLD WATER INLET NODE,Water,1
 Node,93,OFF-NINA MULLION COLD WATER OUTLET NODE,Water,1
 Node,94,OFF-ZHIANG MULLION HOT WATER INLET NODE,Water,1
 Node,95,OFF-ZHIANG MULLION HOT WATER OUTLET NODE,Water,1
 Node,96,OFF-ZHIANG MULLION COLD WATER INLET NODE,Water,1
 Node,97,OFF-ZHIANG MULLION COLD WATER OUTLET NODE,Water,1
 Node,98,OFF-CHENLU MULLION HOT WATER INLET NODE,Water,1
 Node,99,OFF-CHENLU MULLION HOT WATER OUTLET NODE,Water,1
 Node,100,OFF-CHENLU MULLION COLD WATER INLET NODE,Water,1
 Node,101,OFF-CHENLU MULLION COLD WATER OUTLET NODE,Water,1
 Node,102,OFF-ZHIANG FAN COIL UNIT HEATING COIL WATER INLET NODE,Water,1
 Node,103,OFF-ZHIANG FAN COIL UNIT HEATING COIL WATER OUTLET NODE,Water,1
 Node,104,OFF-CHENLU FAN COIL UNIT HEATING COIL WATER INLET NODE,Water,1
 Node,105,OFF-CHENLU FAN COIL UNIT HEATING COIL WATER OUTLET NODE,Water,1
 Node,106,TEMPHWLOOP DEMAND SIDE OUTLET BRANCH PIPE INLET,Water,1
 Node,107,TEMPHWLOOP DEMAND SIDE OUTLET,Water,2
 Node,108,TEMPHWLOOP SUPPLY SIDE INLET,Water,2
 Node,109,TEMPHWLOOP SUPPLY PUMP WATER OUTLET NODE,Water,1
 Node,110,TEMPHWLOOP SUPPLY SIDE BYPASS PIPE INLET NODE,Water,1
 Node,111,TEMPHWLOOP SUPPLY SIDE BYPASS PIPE OUTLET NODE,Water,1
 Node,112,CMU DISTRICTHEATING WATER INLET NODE,Water,1
 Node,113,CMU DISTRICTHEATING WATER OUTLET NODE,Water,1
 Node,114,TEMPHWLOOP SUPPLY SIDE OUTLET BRANCH PIPE INLET,Water,1
 Node,115,TEMPCHWLOOP DEMAND SIDE INLET,Water,2
 Node,116,TEMPCHWLOOP DEMAND SIDE INLET BRANCH PIPE OUTLET,Water,1
 Node,117,TEMPCHWLOOP DEMAND SIDE BYPASS PIPE INLET NODE,Water,1
 Node,118,TEMPCHWLOOP DEMAND SIDE BYPASS PIPE OUTLET NODE,Water,1
 Node,119,BAS CHILLED CEILING CHW WATER INLET NODE,Water,1
 Node,120,BAS CHILLED CEILING CHW WATER OUTLET NODE,Water,1
 Node,121,BAS CHILLED CEILING HW WATER INLET NODE,Water,1
 Node,122,BAS CHILLED CEILING HW WATER OUTLET NODE,Water,1
 Node,123,OFF-VOLKER CHILLED CEILING CHW WATER INLET NODE,Water,1
 Node,124,OFF-VOLKER CHILLED CEILING CHW WATER OUTLET NODE,Water,1
 Node,125,OFF-VOLKER CHILLED CEILING HW WATER INLET NODE,Water,1
 Node,126,OFF-VOLKER CHILLED CEILING HW WATER OUTLET NODE,Water,1
 Node,127,OFF-ERICA CHILLED CEILING CHW WATER INLET NODE,Water,1
 Node,128,OFF-ERICA CHILLED CEILING CHW WATER OUTLET NODE,Water,1
 Node,129,OFF-ERICA CHILLED CEILING HW WATER INLET NODE,Water,1
 Node,130,OFF-ERICA CHILLED CEILING HW WATER OUTLET NODE,Water,1
 Node,131,LARGECONF1 COOLED BEAM CHW INLET NODE,Water,1
 Node,132,LARGECONF1 COOLED BEAM CHW OUTLET NODE,Water,1
 Node,133,OFF-ANNIE COOLED BEAM CHW INLET NODE,Water,1
 Node,134,OFF-ANNIE COOLED BEAM CHW OUTLET NODE,Water,1
 Node,135,LARGECONF0 COOLED BEAM CHW INLET NODE,Water,1
 Node,136,LARGECONF0 COOLED BEAM CHW OUTLET NODE,Water,1
 Node,137,OFF-SUREKHA COOLED BEAM CHW INLET NODE,Water,1
 Node,138,OFF-SUREKHA COOLED BEAM CHW OUTLET NODE,Water,1
 Node,139,OFF-ZHIANG FAN COIL UNIT COOLING COIL WATER INLET NODE,Water,1
 Node,140,OFF-ZHIANG FAN COIL UNIT COOLING COIL WATER OUTLET NODE,Water,1
 Node,141,OFF-CHENLU FAN COIL UNIT COOLING COIL WATER INLET NODE,Water,1
 Node,142,OFF-CHENLU FAN COIL UNIT COOLING COIL WATER OUTLET NODE,Water,1
 Node,143,KITCHEN CHILLED CEILING CHW WATER INLET NODE,Water,1
 Node,144,KITCHEN CHILLED CEILING CHW WATER OUTLET NODE,Water,1
 Node,145,KITCHEN CHILLED CEILING HW WATER INLET NODE,Water,1
 Node,146,KITCHEN CHILLED CEILING HW WATER OUTLET NODE,Water,1
 Node,147,TEMPCHWLOOP DEMAND SIDE OUTLET BRANCH PIPE INLET,Water,1
 Node,148,TEMPCHWLOOP DEMAND SIDE OUTLET,Water,2
 Node,149,TEMPCHWLOOP SUPPLY SIDE INLET,Water,2
 Node,150,TEMPCHWLOOP SUPPLY PUMP WATER OUTLET NODE,Water,1
 Node,151,TEMPCHWLOOP SUPPLY SIDE BYPASS PIPE INLET NODE,Water,1
 Node,152,TEMPCHWLOOP SUPPLY SIDE BYPASS PIPE OUTLET NODE,Water,1
 Node,153,CMU DISTRICTCOOLING CHW INLET NODE,Water,1
 Node,154,CMU DISTRICTCOOLING CHW OUTLET NODE,Water,1
 Node,155,TEMPCHWLOOP SUPPLY SIDE OUTLET BRANCH PIPE INLET,Water,1
 Node,156,DOAS DESICCANT REGEN OUTDOOR AIR INLET,Air,2
 Node,157,DOAS AHU OUTDOOR AIR INLET,Air,2
 Node,158,OFF-ZHIANG FAN COIL UNIT OUTDOOR AIR NODE NAME,Air,1
 Node,159,OFF-CHENLU FAN COIL UNIT OUTDOOR AIR NODE NAME,Air,1
 Node,160,OFF-YUJIE ZONE AIR NODE,Air,0
 Node,161,DOAS ZONE MIXER INLET NODE YUJIE,Air,1
 Node,162,OFF-BAPP ZONE AIR NODE,Air,0
 Node,163,DOAS ZONE MIXER INLET NODE BAPP,Air,1
 Node,164,OFF-WEILI ZONE AIR NODE,Air,0
 Node,165,DOAS ZONE MIXER INLET NODE WEILI,Air,1
 Node,166,OFF-JAMES ZONE AIR NODE,Air,0
 Node,167,DOAS ZONE MIXER INLET NODE JAMES,Air,1
 Node,168,OFF-VIVIAN ZONE AIR NODE,Air,0
 Node,169,DOAS ZONE MIXER INLET NODE VIVIAN,Air,1
 Node,170,OFF-OMER ZONE AIR NODE,Air,0
 Node,171,DOAS ZONE MIXER INLET NODE OMER,Air,1
 Node,172,SMALLCONF ZONE AIR NODE,Air,0
 Node,173,DOAS ZONE MIXER INLET NODE SMALLCONF,Air,1
 Node,174,OFF-NINA ZONE AIR NODE,Air,0
 Node,175,DOAS ZONE MIXER INLET NODE NINA,Air,1
 Node,176,OFF-ZHIANG ZONE AIR NODE,Air,0
 Node,177,OFF-ZHIANG RETURN OUTLET,Air,0
 Node,178,OFF-CHENLU ZONE AIR NODE,Air,0
 Node,179,OFF-CHENLU RETURN OUTLET,Air,0
 Node,180,BAS ZONE AIR NODE,Air,0
 Node,181,BAS RETURN OUTLET,Air,0
 Node,182,OFF-VOLKER ZONE AIR NODE,Air,0
 Node,183,OFF-VOLKER RETURN OUTLET,Air,0
 Node,184,OFF-ERICA ZONE AIR NODE,Air,0
 Node,185,OFF-ERICA RETURN OUTLET,Air,0
 Node,186,LARGECONF1 ZONE AIR NODE,Air,0
 Node,187,DOAS ZONE MIXER INLET NODE LARGECONF1,Air,1
 Node,188,OFF-ANNIE ZONE AIR NODE,Air,0
 Node,189,DOAS ZONE MIXER INLET NODE ANNIE,Air,1
 Node,190,LARGECONF0 ZONE AIR NODE,Air,0
 Node,191,DOAS ZONE MIXER INLET NODE LARGECONF0,Air,1
 Node,192,OFF-SUREKHA ZONE AIR NODE,Air,0
 Node,193,DOAS ZONE MIXER INLET NODE SUREKHA,Air,1
 Node,194,STAIRNCOM ZONE AIR NODE,Air,0
 Node,195,STAIRNCOM RETURN OUTLET,Air,0
 Node,196,KITCHEN ZONE AIR NODE,Air,0
 Node,197,KITCHEN RETURN OUTLET,Air,0
 Node,198,DOAS DEMAND SIDE OUTLET,Air,2
 Node,199,DOAS ZONE SPLITTER OUTLET NODE LARGECONF1,Air,1
 Node,200,DOAS ZONE SPLITTER OUTLET NODE ANNIE,Air,1
 Node,201,DOAS ZONE SPLITTER OUTLET NODE LARGECONF0,Air,1
 Node,202,DOAS ZONE SPLITTER OUTLET NODE SUREKHA,Air,1
 Node,203,DOAS AHU HEAT RECOVERY SUPPLY OUTLET,Air,1
 Node,204,DOAS AHU RELIEF AIR OUTLET,Air,2
 Node,205,OFF-ZHIANG FAN COIL UNIT MIXED AIR OUTLET,Air,1
 Node,206,OFF-ZHIANG FAN COIL UNIT AIR RELIEF NODE NAME,Air,0
 Node,207,OFF-CHENLU FAN COIL UNIT MIXED AIR OUTLET,Air,1
 Node,208,OFF-CHENLU FAN COIL UNIT AIR RELIEF NODE NAME,Air,0
 Node,209,OFF-ZHIANG FAN COIL UNIT COOLING COIL OUTLET,Air,1
 Node,210,OFF-CHENLU FAN COIL UNIT COOLING COIL OUTLET,Air,1
 Node,211,OFF-ZHIANG FAN COIL UNIT SUPPLY FAN OUTLET,Air,1
 Node,212,OFF-CHENLU FAN COIL UNIT SUPPLY FAN OUTLET,Air,1
 Node,213,DOAS DESICCANT REGEN WHEEL AIR OUTLET,Air,1
 Node,214,DOAS DESICCANT REGEN AIR RELIEF OUTLET,Air,1
 Node,215,DOAS AHU HEAT RECOVERY RELIEF OUTLET,Air,0
 Node,216,DOAS DESICCANT REGEN BURNER AIR OUTLET,Air,1
! ===============================================================
! Suspicious nodes have 0 references.  It is normal for some nodes, however.
! Listing nodes with 0 references (culled from previous list):
! <Suspicious Node>,<NodeNumber>,<Node Name>,<Node Fluid Type>,<# Times Node Referenced After Definition>
 Suspicious Node,160,OFF-YUJIE ZONE AIR NODE,Air,0
 Suspicious Node,162,OFF-BAPP ZONE AIR NODE,Air,0
 Suspicious Node,164,OFF-WEILI ZONE AIR NODE,Air,0
 Suspicious Node,166,OFF-JAMES ZONE AIR NODE,Air,0
 Suspicious Node,168,OFF-VIVIAN ZONE AIR NODE,Air,0
 Suspicious Node,170,OFF-OMER ZONE AIR NODE,Air,0
 Suspicious Node,172,SMALLCONF ZONE AIR NODE,Air,0
 Suspicious Node,174,OFF-NINA ZONE AIR NODE,Air,0
 Suspicious Node,176,OFF-ZHIANG ZONE AIR NODE,Air,0
 Suspicious Node,177,OFF-ZHIANG RETURN OUTLET,Air,0
 Suspicious Node,178,OFF-CHENLU ZONE AIR NODE,Air,0
 Suspicious Node,179,OFF-CHENLU RETURN OUTLET,Air,0
 Suspicious Node,180,BAS ZONE AIR NODE,Air,0
 Suspicious Node,181,BAS RETURN OUTLET,Air,0
 Suspicious Node,182,OFF-VOLKER ZONE AIR NODE,Air,0
 Suspicious Node,183,OFF-VOLKER RETURN OUTLET,Air,0
 Suspicious Node,184,OFF-ERICA ZONE AIR NODE,Air,0
 Suspicious Node,185,OFF-ERICA RETURN OUTLET,Air,0
 Suspicious Node,186,LARGECONF1 ZONE AIR NODE,Air,0
 Suspicious Node,188,OFF-ANNIE ZONE AIR NODE,Air,0
 Suspicious Node,190,LARGECONF0 ZONE AIR NODE,Air,0
 Suspicious Node,192,OFF-SUREKHA ZONE AIR NODE,Air,0
 Suspicious Node,194,STAIRNCOM ZONE AIR NODE,Air,0
 Suspicious Node,195,STAIRNCOM RETURN OUTLET,Air,0
 Suspicious Node,196,KITCHEN ZONE AIR NODE,Air,0
 Suspicious Node,197,KITCHEN RETURN OUTLET,Air,0
 Suspicious Node,206,OFF-ZHIANG FAN COIL UNIT AIR RELIEF NODE NAME,Air,0
 Suspicious Node,208,OFF-CHENLU FAN COIL UNIT AIR RELIEF NODE NAME,Air,0
 Suspicious Node,215,DOAS AHU HEAT RECOVERY RELIEF OUTLET,Air,0
! ===============================================================
! <#Branch Lists>,<Number of Branch Lists>
 #Branch Lists,5
! <Branch List>,<Branch List Count>,<Branch List Name>,<Loop Name>,<Loop Type>,<Number of Branches>
! <Branch>,<Branch Count>,<Branch Name>,<Loop Name>,<Loop Type>,<Branch Inlet Node Name>,<Branch Outlet Node Name>
 Branch List,1,DOAS BRANCHES,DOAS,Air,1
   Branch,1,DOAS AHU MAIN BRANCH,DOAS,Air,DOAS SUPPLY SIDE INLET,DOAS SUPPLY SIDE OUTLET 1
 Branch List,2,TEMPHWLOOP DEMAND SIDE BRANCHES,TEMPHWLOOP,Plant Demand,27
   Branch,1,TEMPHWLOOP DEMAND SIDE INLET BRANCH,TEMPHWLOOP,Plant Demand,TEMPHWLOOP DEMAND SIDE INLET,TEMPHWLOOP DEMAND SIDE INLET BRANCH PIPE OUTLET
   Branch,2,TEMPHWLOOP DEMAND SIDE BYPASS BRANCH,TEMPHWLOOP,Plant Demand,TEMPHWLOOP DEMAND SIDE BYPASS PIPE INLET NODE,TEMPHWLOOP DEMAND SIDE BYPASS PIPE OUTLET NODE
   Branch,3,BAS MULLION TEMPHWLOOP DEMAND SIDE BRANCH,TEMPHWLOOP,Plant Demand,BAS MULLION HOT WATER INLET NODE,BAS MULLION HOT WATER OUTLET NODE
   Branch,4,OFF-VOLKER MULLION TEMPHWLOOP DEMAND SIDE BRANCH,TEMPHWLOOP,Plant Demand,OFF-VOLKER MULLION HOT WATER INLET NODE,OFF-VOLKER MULLION HOT WATER OUTLET NODE
   Branch,5,OFF-ERICA MULLION TEMPHWLOOP DEMAND SIDE BRANCH,TEMPHWLOOP,Plant Demand,OFF-ERICA MULLION HOT WATER INLET NODE,OFF-ERICA MULLION HOT WATER OUTLET NODE
   Branch,6,LARGECONF1 MULLION TEMPHWLOOP DEMAND SIDE BRANCH,TEMPHWLOOP,Plant Demand,LARGECONF1 MULLION HOT WATER INLET NODE,LARGECONF1 MULLION HOT WATER OUTLET NODE
   Branch,7,OFF-ANNIE MULLION TEMPHWLOOP DEMAND SIDE BRANCH,TEMPHWLOOP,Plant Demand,OFF-ANNIE MULLION HOT WATER INLET NODE,OFF-ANNIE MULLION HOT WATER OUTLET NODE
   Branch,8,LARGECONF0 MULLION TEMPHWLOOP DEMAND SIDE BRANCH,TEMPHWLOOP,Plant Demand,LARGECONF0 MULLION HOT WATER INLET NODE,LARGECONF0 MULLION HOT WATER OUTLET NODE
   Branch,9,OFF-SUREKHA MULLION TEMPHWLOOP DEMAND SIDE BRANCH,TEMPHWLOOP,Plant Demand,OFF-SUREKHA MULLION HOT WATER INLET NODE,OFF-SUREKHA MULLION HOT WATER OUTLET NODE
   Branch,10,STAIRNCOM MULLION TEMPHWLOOP DEMAND SIDE BRANCH,TEMPHWLOOP,Plant Demand,STAIRNCOM MULLION HOT WATER INLET NODE,STAIRNCOM MULLION HOT WATER OUTLET NODE
   Branch,11,OFF-YUJIE MULLION TEMPHWLOOP DEMAND SIDE BRANCH,TEMPHWLOOP,Plant Demand,OFF-YUJIE MULLION HOT WATER INLET NODE,OFF-YUJIE MULLION HOT WATER OUTLET NODE
   Branch,12,OFF-BAPP MULLION TEMPHWLOOP DEMAND SIDE BRANCH,TEMPHWLOOP,Plant Demand,OFF-BAPP MULLION HOT WATER INLET NODE,OFF-BAPP MULLION HOT WATER OUTLET NODE
   Branch,13,OFF-WEILI MULLION TEMPHWLOOP DEMAND SIDE BRANCH,TEMPHWLOOP,Plant Demand,OFF-WEILI MULLION HOT WATER INLET NODE,OFF-WEILI MULLION HOT WATER OUTLET NODE
   Branch,14,OFF-JAMES MULLION TEMPHWLOOP DEMAND SIDE BRANCH,TEMPHWLOOP,Plant Demand,OFF-JAMES MULLION HOT WATER INLET NODE,OFF-JAMES MULLION HOT WATER OUTLET NODE
   Branch,15,OFF-VIVIAN MULLION TEMPHWLOOP DEMAND SIDE BRANCH,TEMPHWLOOP,Plant Demand,OFF-VIVIAN MULLION HOT WATER INLET NODE,OFF-VIVIAN MULLION HOT WATER OUTLET NODE
   Branch,16,OFF-OMER MULLION TEMPHWLOOP DEMAND SIDE BRANCH,TEMPHWLOOP,Plant Demand,OFF-OMER MULLION HOT WATER INLET NODE,OFF-OMER MULLION HOT WATER OUTLET NODE
   Branch,17,SMALLCONF MULLION TEMPHWLOOP DEMAND SIDE BRANCH,TEMPHWLOOP,Plant Demand,SMALLCONF MULLION HOT WATER INLET NODE,SMALLCONF MULLION HOT WATER OUTLET NODE
   Branch,18,OFF-NINA MULLION TEMPHWLOOP DEMAND SIDE BRANCH,TEMPHWLOOP,Plant Demand,OFF-NINA MULLION HOT WATER INLET NODE,OFF-NINA MULLION HOT WATER OUTLET NODE
   Branch,19,OFF-ZHIANG MULLION TEMPHWLOOP DEMAND SIDE BRANCH,TEMPHWLOOP,Plant Demand,OFF-ZHIANG MULLION HOT WATER INLET NODE,OFF-ZHIANG MULLION HOT WATER OUTLET NODE
   Branch,20,OFF-CHENLU MULLION TEMPHWLOOP DEMAND SIDE BRANCH,TEMPHWLOOP,Plant Demand,OFF-CHENLU MULLION HOT WATER INLET NODE,OFF-CHENLU MULLION HOT WATER OUTLET NODE
   Branch,21,OFF-ZHIANG FAN COIL UNIT HEATING COIL TEMPHWLOOP DEMAND SIDE BRANCH,TEMPHWLOOP,Plant Demand,OFF-ZHIANG FAN COIL UNIT HEATING COIL WATER INLET NODE,OFF-ZHIANG FAN COIL UNIT HEATING COIL WATER OUTLET NODE
   Branch,22,OFF-CHENLU FAN COIL UNIT HEATING COIL TEMPHWLOOP DEMAND SIDE BRANCH,TEMPHWLOOP,Plant Demand,OFF-CHENLU FAN COIL UNIT HEATING COIL WATER INLET NODE,OFF-CHENLU FAN COIL UNIT HEATING COIL WATER OUTLET NODE
   Branch,23,BAS CHILLED CEILING TEMPHWLOOP DEMAND SIDE BRANCH,TEMPHWLOOP,Plant Demand,BAS CHILLED CEILING HW WATER INLET NODE,BAS CHILLED CEILING HW WATER OUTLET NODE
   Branch,24,OFF-VOLKER CHILLED CEILING TEMPHWLOOP DEMAND SIDE BRANCH,TEMPHWLOOP,Plant Demand,OFF-VOLKER CHILLED CEILING HW WATER INLET NODE,OFF-VOLKER CHILLED CEILING HW WATER OUTLET NODE
   Branch,25,OFF-ERICA CHILLED CEILING TEMPHWLOOP DEMAND SIDE BRANCH,TEMPHWLOOP,Plant Demand,OFF-ERICA CHILLED CEILING HW WATER INLET NODE,OFF-ERICA CHILLED CEILING HW WATER OUTLET NODE
   Branch,26,KITCHEN CHILLED CEILING TEMPHWLOOP DEMAND SIDE BRANCH,TEMPHWLOOP,Plant Demand,KITCHEN CHILLED CEILING HW WATER INLET NODE,KITCHEN CHILLED CEILING HW WATER OUTLET NODE
   Branch,27,TEMPHWLOOP DEMAND SIDE OUTLET BRANCH,TEMPHWLOOP,Plant Demand,TEMPHWLOOP DEMAND SIDE OUTLET BRANCH PIPE INLET,TEMPHWLOOP DEMAND SIDE OUTLET
 Branch List,3,TEMPHWLOOP SUPPLY SIDE BRANCHES,TEMPHWLOOP,Plant Supply,4
   Branch,1,TEMPHWLOOP SUPPLY SIDE INLET BRANCH,TEMPHWLOOP,Plant Supply,TEMPHWLOOP SUPPLY SIDE INLET,TEMPHWLOOP SUPPLY PUMP WATER OUTLET NODE
   Branch,2,TEMPHWLOOP SUPPLY SIDE BYPASS BRANCH,TEMPHWLOOP,Plant Supply,TEMPHWLOOP SUPPLY SIDE BYPASS PIPE INLET NODE,TEMPHWLOOP SUPPLY SIDE BYPASS PIPE OUTLET NODE
   Branch,3,CMU DISTRICTHEATING TEMPHWLOOP SUPPLY SIDE BRANCH,TEMPHWLOOP,Plant Supply,CMU DISTRICTHEATING WATER INLET NODE,CMU DISTRICTHEATING WATER OUTLET NODE
   Branch,4,TEMPHWLOOP SUPPLY SIDE OUTLET BRANCH,TEMPHWLOOP,Plant Supply,TEMPHWLOOP SUPPLY SIDE OUTLET BRANCH PIPE INLET,TEMPHWLOOP SUPPLY SIDE OUTLET
 Branch List,4,TEMPCHWLOOP DEMAND SIDE BRANCHES,TEMPCHWLOOP,Plant Demand,31
   Branch,1,TEMPCHWLOOP DEMAND SIDE INLET BRANCH,TEMPCHWLOOP,Plant Demand,TEMPCHWLOOP DEMAND SIDE INLET,TEMPCHWLOOP DEMAND SIDE INLET BRANCH PIPE OUTLET
   Branch,2,TEMPCHWLOOP DEMAND SIDE BYPASS BRANCH,TEMPCHWLOOP,Plant Demand,TEMPCHWLOOP DEMAND SIDE BYPASS PIPE INLET NODE,TEMPCHWLOOP DEMAND SIDE BYPASS PIPE OUTLET NODE
   Branch,3,BAS CHILLED CEILING TEMPCHWLOOP DEMAND SIDE BRANCH,TEMPCHWLOOP,Plant Demand,BAS CHILLED CEILING CHW WATER INLET NODE,BAS CHILLED CEILING CHW WATER OUTLET NODE
   Branch,4,OFF-VOLKER CHILLED CEILING TEMPCHWLOOP DEMAND SIDE BRANCH,TEMPCHWLOOP,Plant Demand,OFF-VOLKER CHILLED CEILING CHW WATER INLET NODE,OFF-VOLKER CHILLED CEILING CHW WATER OUTLET NODE
   Branch,5,OFF-ERICA CHILLED CEILING TEMPCHWLOOP DEMAND SIDE BRANCH,TEMPCHWLOOP,Plant Demand,OFF-ERICA CHILLED CEILING CHW WATER INLET NODE,OFF-ERICA CHILLED CEILING CHW WATER OUTLET NODE
   Branch,6,LARGECONF1 COOLED BEAM TEMPCHWLOOP DEMAND SIDE BRANCH,TEMPCHWLOOP,Plant Demand,LARGECONF1 COOLED BEAM CHW INLET NODE,LARGECONF1 COOLED BEAM CHW OUTLET NODE
   Branch,7,OFF-ANNIE COOLED BEAM TEMPCHWLOOP DEMAND SIDE BRANCH,TEMPCHWLOOP,Plant Demand,OFF-ANNIE COOLED BEAM CHW INLET NODE,OFF-ANNIE COOLED BEAM CHW OUTLET NODE
   Branch,8,LARGECONF0 COOLED BEAM TEMPCHWLOOP DEMAND SIDE BRANCH,TEMPCHWLOOP,Plant Demand,LARGECONF0 COOLED BEAM CHW INLET NODE,LARGECONF0 COOLED BEAM CHW OUTLET NODE
   Branch,9,OFF-SUREKHA COOLED BEAM TEMPCHWLOOP DEMAND SIDE BRANCH,TEMPCHWLOOP,Plant Demand,OFF-SUREKHA COOLED BEAM CHW INLET NODE,OFF-SUREKHA COOLED BEAM CHW OUTLET NODE
   Branch,10,OFF-ZHIANG FAN COIL UNIT COOLING COIL TEMPCHWLOOP DEMAND SIDE BRANCH,TEMPCHWLOOP,Plant Demand,OFF-ZHIANG FAN COIL UNIT COOLING COIL WATER INLET NODE,OFF-ZHIANG FAN COIL UNIT COOLING COIL WATER OUTLET NODE
   Branch,11,OFF-CHENLU FAN COIL UNIT COOLING COIL TEMPCHWLOOP DEMAND SIDE BRANCH,TEMPCHWLOOP,Plant Demand,OFF-CHENLU FAN COIL UNIT COOLING COIL WATER INLET NODE,OFF-CHENLU FAN COIL UNIT COOLING COIL WATER OUTLET NODE
   Branch,12,KITCHEN CHILLED CEILING TEMPCHWLOOP DEMAND SIDE BRANCH,TEMPCHWLOOP,Plant Demand,KITCHEN CHILLED CEILING CHW WATER INLET NODE,KITCHEN CHILLED CEILING CHW WATER OUTLET NODE
   Branch,13,BAS MULLION TEMPCHWLOOP DEMAND SIDE BRANCH,TEMPCHWLOOP,Plant Demand,BAS MULLION COLD WATER INLET NODE,BAS MULLION COLD WATER OUTLET NODE
   Branch,14,OFF-VOLKER MULLION TEMPCHWLOOP DEMAND SIDE BRANCH,TEMPCHWLOOP,Plant Demand,OFF-VOLKER MULLION COLD WATER INLET NODE,OFF-VOLKER MULLION COLD WATER OUTLET NODE
   Branch,15,OFF-ERICA MULLION TEMPCHWLOOP DEMAND SIDE BRANCH,TEMPCHWLOOP,Plant Demand,OFF-ERICA MULLION COLD WATER INLET NODE,OFF-ERICA MULLION COLD WATER OUTLET NODE
   Branch,16,LARGECONF1 MULLION TEMPCHWLOOP DEMAND SIDE BRANCH,TEMPCHWLOOP,Plant Demand,LARGECONF1 MULLION COLD WATER INLET NODE,LARGECONF1 MULLION COLD WATER OUTLET NODE
   Branch,17,OFF-ANNIE MULLION TEMPCHWLOOP DEMAND SIDE BRANCH,TEMPCHWLOOP,Plant Demand,OFF-ANNIE MULLION COLD WATER INLET NODE,OFF-ANNIE MULLION COLD WATER OUTLET NODE
   Branch,18,LARGECONF0 MULLION TEMPCHWLOOP DEMAND SIDE BRANCH,TEMPCHWLOOP,Plant Demand,LARGECONF0 MULLION COLD WATER INLET NODE,LARGECONF0 MULLION COLD WATER OUTLET NODE
   Branch,19,OFF-SUREKHA MULLION TEMPCHWLOOP DEMAND SIDE BRANCH,TEMPCHWLOOP,Plant Demand,OFF-SUREKHA MULLION COLD WATER INLET NODE,OFF-SUREKHA MULLION COLD WATER OUTLET NODE
   Branch,20,STAIRNCOM MULLION TEMPCHWLOOP DEMAND SIDE BRANCH,TEMPCHWLOOP,Plant Demand,STAIRNCOM MULLION COLD WATER INLET NODE,STAIRNCOM MULLION COLD WATER OUTLET NODE
   Branch,21,OFF-YUJIE MULLION TEMPCHWLOOP DEMAND SIDE BRANCH,TEMPCHWLOOP,Plant Demand,OFF-YUJIE MULLION COLD WATER INLET NODE,OFF-YUJIE MULLION COLD WATER OUTLET NODE
   Branch,22,OFF-BAPP MULLION TEMPCHWLOOP DEMAND SIDE BRANCH,TEMPCHWLOOP,Plant Demand,OFF-BAPP MULLION COLD WATER INLET NODE,OFF-BAPP MULLION COLD WATER OUTLET NODE
   Branch,23,OFF-WEILI MULLION TEMPCHWLOOP DEMAND SIDE BRANCH,TEMPCHWLOOP,Plant Demand,OFF-WEILI MULLION COLD WATER INLET NODE,OFF-WEILI MULLION COLD WATER OUTLET NODE
   Branch,24,OFF-JAMES MULLION TEMPCHWLOOP DEMAND SIDE BRANCH,TEMPCHWLOOP,Plant Demand,OFF-JAMES MULLION COLD WATER INLET NODE,OFF-JAMES MULLION COLD WATER OUTLET NODE
   Branch,25,OFF-VIVIAN MULLION TEMPCHWLOOP DEMAND SIDE BRANCH,TEMPCHWLOOP,Plant Demand,OFF-VIVIAN MULLION COLD WATER INLET NODE,OFF-VIVIAN MULLION COLD WATER OUTLET NODE
   Branch,26,OFF-OMER MULLION TEMPCHWLOOP DEMAND SIDE BRANCH,TEMPCHWLOOP,Plant Demand,OFF-OMER MULLION COLD WATER INLET NODE,OFF-OMER MULLION COLD WATER OUTLET NODE
   Branch,27,SMALLCONF MULLION TEMPCHWLOOP DEMAND SIDE BRANCH,TEMPCHWLOOP,Plant Demand,SMALLCONF MULLION COLD WATER INLET NODE,SMALLCONF MULLION COLD WATER OUTLET NODE
   Branch,28,OFF-NINA MULLION TEMPCHWLOOP DEMAND SIDE BRANCH,TEMPCHWLOOP,Plant Demand,OFF-NINA MULLION COLD WATER INLET NODE,OFF-NINA MULLION COLD WATER OUTLET NODE
   Branch,29,OFF-ZHIANG MULLION TEMPCHWLOOP DEMAND SIDE BRANCH,TEMPCHWLOOP,Plant Demand,OFF-ZHIANG MULLION COLD WATER INLET NODE,OFF-ZHIANG MULLION COLD WATER OUTLET NODE
   Branch,30,OFF-CHENLU MULLION TEMPCHWLOOP DEMAND SIDE BRANCH,TEMPCHWLOOP,Plant Demand,OFF-CHENLU MULLION COLD WATER INLET NODE,OFF-CHENLU MULLION COLD WATER OUTLET NODE
   Branch,31,TEMPCHWLOOP DEMAND SIDE OUTLET BRANCH,TEMPCHWLOOP,Plant Demand,TEMPCHWLOOP DEMAND SIDE OUTLET BRANCH PIPE INLET,TEMPCHWLOOP DEMAND SIDE OUTLET
 Branch List,5,TEMPCHWLOOP SUPPLY SIDE BRANCHES,TEMPCHWLOOP,Plant Supply,4
   Branch,1,TEMPCHWLOOP SUPPLY SIDE INLET BRANCH,TEMPCHWLOOP,Plant Supply,TEMPCHWLOOP SUPPLY SIDE INLET,TEMPCHWLOOP SUPPLY PUMP WATER OUTLET NODE
   Branch,2,TEMPCHWLOOP SUPPLY SIDE BYPASS BRANCH,TEMPCHWLOOP,Plant Supply,TEMPCHWLOOP SUPPLY SIDE BYPASS PIPE INLET NODE,TEMPCHWLOOP SUPPLY SIDE BYPASS PIPE OUTLET NODE
   Branch,3,CMU DISTRICTCOOLING TEMPCHWLOOP SUPPLY SIDE BRANCH,TEMPCHWLOOP,Plant Supply,CMU DISTRICTCOOLING CHW INLET NODE,CMU DISTRICTCOOLING CHW OUTLET NODE
   Branch,4,TEMPCHWLOOP SUPPLY SIDE OUTLET BRANCH,TEMPCHWLOOP,Plant Supply,TEMPCHWLOOP SUPPLY SIDE OUTLET BRANCH PIPE INLET,TEMPCHWLOOP SUPPLY SIDE OUTLET
! ===============================================================
! <#Supply Air Paths>,<Number of Supply Air Paths>
 #Supply Air Paths,1
! <Supply Air Path>,<Supply Air Path Count>,<Supply Air Path Name>,<AirLoopHVAC Name>
! <#Components on Supply Air Path>,<Number of Components>
! <Supply Air Path Component>,<Component Count>,<Component Type>,<Component Name>,<AirLoopHVAC Name>
! <#Outlet Nodes on Supply Air Path Component>,<Number of Nodes>
! <Supply Air Path Component Nodes>,<Node Count>,<Component Type>,<Component Name>,<Inlet Node Name>,<Outlet Node Name>,<AirLoopHVAC Name>
 Supply Air Path,1,DOAS DEMAND SIDE SUPPLY PATH 1,DOAS
   #Components on Supply Air Path,1
   Supply Air Path Component,1,AIRLOOPHVAC:ZONESPLITTER,DOAS ZONE SPLITTER,DOAS
     #Outlet Nodes on Supply Air Path Component,12
     Supply Air Path Component Nodes,1,AIRLOOPHVAC:ZONESPLITTER,DOAS ZONE SPLITTER,DOAS DEMAND SIDE INLET 1,DOAS ZONE SPLITTER OUTLET NODE YUJIE,DOAS
     Supply Air Path Component Nodes,2,AIRLOOPHVAC:ZONESPLITTER,DOAS ZONE SPLITTER,DOAS DEMAND SIDE INLET 1,DOAS ZONE SPLITTER OUTLET NODE BAPP,DOAS
     Supply Air Path Component Nodes,3,AIRLOOPHVAC:ZONESPLITTER,DOAS ZONE SPLITTER,DOAS DEMAND SIDE INLET 1,DOAS ZONE SPLITTER OUTLET NODE WEILI,DOAS
     Supply Air Path Component Nodes,4,AIRLOOPHVAC:ZONESPLITTER,DOAS ZONE SPLITTER,DOAS DEMAND SIDE INLET 1,DOAS ZONE SPLITTER OUTLET NODE JAMES,DOAS
     Supply Air Path Component Nodes,5,AIRLOOPHVAC:ZONESPLITTER,DOAS ZONE SPLITTER,DOAS DEMAND SIDE INLET 1,DOAS ZONE SPLITTER OUTLET NODE VIVIAN,DOAS
     Supply Air Path Component Nodes,6,AIRLOOPHVAC:ZONESPLITTER,DOAS ZONE SPLITTER,DOAS DEMAND SIDE INLET 1,DOAS ZONE SPLITTER OUTLET NODE OMER,DOAS
     Supply Air Path Component Nodes,7,AIRLOOPHVAC:ZONESPLITTER,DOAS ZONE SPLITTER,DOAS DEMAND SIDE INLET 1,DOAS ZONE SPLITTER OUTLET NODE SMALLCONF,DOAS
     Supply Air Path Component Nodes,8,AIRLOOPHVAC:ZONESPLITTER,DOAS ZONE SPLITTER,DOAS DEMAND SIDE INLET 1,DOAS ZONE SPLITTER OUTLET NODE NINA,DOAS
     Supply Air Path Component Nodes,9,AIRLOOPHVAC:ZONESPLITTER,DOAS ZONE SPLITTER,DOAS DEMAND SIDE INLET 1,DOAS ZONE SPLITTER OUTLET NODE LARGECONF1,DOAS
     Supply Air Path Component Nodes,10,AIRLOOPHVAC:ZONESPLITTER,DOAS ZONE SPLITTER,DOAS DEMAND SIDE INLET 1,DOAS ZONE SPLITTER OUTLET NODE ANNIE,DOAS
     Supply Air Path Component Nodes,11,AIRLOOPHVAC:ZONESPLITTER,DOAS ZONE SPLITTER,DOAS DEMAND SIDE INLET 1,DOAS ZONE SPLITTER OUTLET NODE LARGECONF0,DOAS
     Supply Air Path Component Nodes,12,AIRLOOPHVAC:ZONESPLITTER,DOAS ZONE SPLITTER,DOAS DEMAND SIDE INLET 1,DOAS ZONE SPLITTER OUTLET NODE SUREKHA,DOAS
! <#Nodes on Supply Air Path>,<Number of Nodes>
! <Supply Air Path Node>,<Node Type>,<Node Count>,<Node Name>,<AirLoopHVAC Name>
#Nodes on Supply Air Path,13
   Supply Air Path Node,Inlet Node,1,DOAS DEMAND SIDE INLET 1,DOAS
   Supply Air Path Node,Outlet Node,2,DOAS ZONE SPLITTER OUTLET NODE YUJIE,DOAS
   Supply Air Path Node,Outlet Node,3,DOAS ZONE SPLITTER OUTLET NODE BAPP,DOAS
   Supply Air Path Node,Outlet Node,4,DOAS ZONE SPLITTER OUTLET NODE WEILI,DOAS
   Supply Air Path Node,Outlet Node,5,DOAS ZONE SPLITTER OUTLET NODE JAMES,DOAS
   Supply Air Path Node,Outlet Node,6,DOAS ZONE SPLITTER OUTLET NODE VIVIAN,DOAS
   Supply Air Path Node,Outlet Node,7,DOAS ZONE SPLITTER OUTLET NODE OMER,DOAS
   Supply Air Path Node,Outlet Node,8,DOAS ZONE SPLITTER OUTLET NODE SMALLCONF,DOAS
   Supply Air Path Node,Outlet Node,9,DOAS ZONE SPLITTER OUTLET NODE NINA,DOAS
   Supply Air Path Node,Outlet Node,10,DOAS ZONE SPLITTER OUTLET NODE LARGECONF1,DOAS
   Supply Air Path Node,Outlet Node,11,DOAS ZONE SPLITTER OUTLET NODE ANNIE,DOAS
   Supply Air Path Node,Outlet Node,12,DOAS ZONE SPLITTER OUTLET NODE LARGECONF0,DOAS
   Supply Air Path Node,Outlet Node,13,DOAS ZONE SPLITTER OUTLET NODE SUREKHA,DOAS
! ===============================================================
! <#Return Air Paths>,<Number of Return Air Paths>
 #Return Air Paths,1
! <Return Air Path>,<Return Air Path Count>,<Return Air Path Name>,<AirLoopHVAC Name>
! <#Components on Return Air Path>,<Number of Components>
! <Return Air Path Component>,<Component Count>,<Component Type>,<Component Name>,<AirLoopHVAC Name>
! <#Inlet Nodes on Return Air Path Component>,<Number of Nodes>
! <Return Air Path Component Nodes>,<Node Count>,<Component Type>,<Component Name>,<Inlet Node Name>,<Outlet Node Name>,<AirLoopHVAC Name>
 Return Air Path,1,DOAS DEMAND SIDE RETURN PATH,DOAS
   #Components on Return Air Path,1
   Return Air Path Component,1,AIRLOOPHVAC:ZONEMIXER,DOAS ZONE MIXER,DOAS
     #Inlet Nodes on Return Air Path Component,12
     Return Air Path Component Nodes,1,AIRLOOPHVAC:ZONEMIXER,DOAS ZONE MIXER,DOAS ZONE MIXER INLET NODE LARGECONF1,DOAS DEMAND SIDE OUTLET,DOAS
     Return Air Path Component Nodes,2,AIRLOOPHVAC:ZONEMIXER,DOAS ZONE MIXER,DOAS ZONE MIXER INLET NODE ANNIE,DOAS DEMAND SIDE OUTLET,DOAS
     Return Air Path Component Nodes,3,AIRLOOPHVAC:ZONEMIXER,DOAS ZONE MIXER,DOAS ZONE MIXER INLET NODE LARGECONF0,DOAS DEMAND SIDE OUTLET,DOAS
     Return Air Path Component Nodes,4,AIRLOOPHVAC:ZONEMIXER,DOAS ZONE MIXER,DOAS ZONE MIXER INLET NODE SUREKHA,DOAS DEMAND SIDE OUTLET,DOAS
     Return Air Path Component Nodes,5,AIRLOOPHVAC:ZONEMIXER,DOAS ZONE MIXER,DOAS ZONE MIXER INLET NODE YUJIE,DOAS DEMAND SIDE OUTLET,DOAS
     Return Air Path Component Nodes,6,AIRLOOPHVAC:ZONEMIXER,DOAS ZONE MIXER,DOAS ZONE MIXER INLET NODE BAPP,DOAS DEMAND SIDE OUTLET,DOAS
     Return Air Path Component Nodes,7,AIRLOOPHVAC:ZONEMIXER,DOAS ZONE MIXER,DOAS ZONE MIXER INLET NODE WEILI,DOAS DEMAND SIDE OUTLET,DOAS
     Return Air Path Component Nodes,8,AIRLOOPHVAC:ZONEMIXER,DOAS ZONE MIXER,DOAS ZONE MIXER INLET NODE JAMES,DOAS DEMAND SIDE OUTLET,DOAS
     Return Air Path Component Nodes,9,AIRLOOPHVAC:ZONEMIXER,DOAS ZONE MIXER,DOAS ZONE MIXER INLET NODE VIVIAN,DOAS DEMAND SIDE OUTLET,DOAS
     Return Air Path Component Nodes,10,AIRLOOPHVAC:ZONEMIXER,DOAS ZONE MIXER,DOAS ZONE MIXER INLET NODE OMER,DOAS DEMAND SIDE OUTLET,DOAS
     Return Air Path Component Nodes,11,AIRLOOPHVAC:ZONEMIXER,DOAS ZONE MIXER,DOAS ZONE MIXER INLET NODE SMALLCONF,DOAS DEMAND SIDE OUTLET,DOAS
     Return Air Path Component Nodes,12,AIRLOOPHVAC:ZONEMIXER,DOAS ZONE MIXER,DOAS ZONE MIXER INLET NODE NINA,DOAS DEMAND SIDE OUTLET,DOAS
! <#Nodes on Return Air Path>,<Number of Nodes>
! <Return Air Path Node>,<Node Type>,<Node Count>,<Node Name>,<AirLoopHVAC Name>
   #Nodes on Return Air Path,13
   Return Air Path Node,Outlet Node,1,DOAS DEMAND SIDE OUTLET,DOAS
   Return Air Path Node,Inlet Node,2,DOAS ZONE MIXER INLET NODE LARGECONF1,DOAS
   Return Air Path Node,Inlet Node,3,DOAS ZONE MIXER INLET NODE ANNIE,DOAS
   Return Air Path Node,Inlet Node,4,DOAS ZONE MIXER INLET NODE LARGECONF0,DOAS
   Return Air Path Node,Inlet Node,5,DOAS ZONE MIXER INLET NODE SUREKHA,DOAS
   Return Air Path Node,Inlet Node,6,DOAS ZONE MIXER INLET NODE YUJIE,DOAS
   Return Air Path Node,Inlet Node,7,DOAS ZONE MIXER INLET NODE BAPP,DOAS
   Return Air Path Node,Inlet Node,8,DOAS ZONE MIXER INLET NODE WEILI,DOAS
   Return Air Path Node,Inlet Node,9,DOAS ZONE MIXER INLET NODE JAMES,DOAS
   Return Air Path Node,Inlet Node,10,DOAS ZONE MIXER INLET NODE VIVIAN,DOAS
   Return Air Path Node,Inlet Node,11,DOAS ZONE MIXER INLET NODE OMER,DOAS
   Return Air Path Node,Inlet Node,12,DOAS ZONE MIXER INLET NODE SMALLCONF,DOAS
   Return Air Path Node,Inlet Node,13,DOAS ZONE MIXER INLET NODE NINA,DOAS
! ===============================================================
! #Outdoor Air Nodes,<Number of Outdoor Air Nodes>
 #Outdoor Air Nodes,4
! <Outdoor Air Node>,<NodeNumber>,<Node Name>
 Outdoor Air Node,156,DOAS DESICCANT REGEN OUTDOOR AIR INLET
 Outdoor Air Node,157,DOAS AHU OUTDOOR AIR INLET
 Outdoor Air Node,158,OFF-ZHIANG FAN COIL UNIT OUTDOOR AIR NODE NAME
 Outdoor Air Node,159,OFF-CHENLU FAN COIL UNIT OUTDOOR AIR NODE NAME
! ===============================================================
! <#Component Sets>,<Number of Component Sets>
 #Component Sets,89
! <Component Set>,<Component Set Count>,<Parent Object Type>,<Parent Object Name>,<Component Type>,<Component Name>,<Inlet Node ID>,<Outlet Node ID>,<Description>
 Component Set,1,BRANCH,DOAS AHU MAIN BRANCH,FAN:CONSTANTVOLUME,DOAS AHU EXTRACT FAN,DOAS SUPPLY SIDE INLET,DOAS AHU EXTRACT FAN AIR OUTLET NODE,Air Nodes
 Component Set,2,BRANCH,DOAS AHU MAIN BRANCH,AIRLOOPHVAC:OUTDOORAIRSYSTEM,DOAS AHU  OUTSIDE AIR SYSTEM,DOAS AHU EXTRACT FAN AIR OUTLET NODE,DOAS AHU MIXED AIR OUTLET,Air Nodes
 Component Set,3,BRANCH,DOAS AHU MAIN BRANCH,FAN:CONSTANTVOLUME,DOAS AHU SUPPLY FAN,DOAS AHU MIXED AIR OUTLET,DOAS AHU SUPPLY FAN OUTLET,Air Nodes
 Component Set,4,BRANCH,DOAS AHU MAIN BRANCH,COILSYSTEM:COOLING:DX,DOAS AHU UNITARY COOLING COIL,DOAS AHU SUPPLY FAN OUTLET,DOAS AHU UNITARY COOLING COIL DX COOLING COIL AIR OUTLET NODE,Air Nodes
 Component Set,5,BRANCH,DOAS AHU MAIN BRANCH,DEHUMIDIFIER:DESICCANT:SYSTEM,DOAS AHU DESICCANT DEHUMIDIFIER,DOAS AHU UNITARY COOLING COIL DX COOLING COIL AIR OUTLET NODE,DOAS SUPPLY SIDE OUTLET 1,Process Air Nodes
 Component Set,6,BRANCH,TEMPHWLOOP DEMAND SIDE INLET BRANCH,PIPE:ADIABATIC,TEMPHWLOOP DEMAND SIDE INLET BRANCH PIPE,TEMPHWLOOP DEMAND SIDE INLET,TEMPHWLOOP DEMAND SIDE INLET BRANCH PIPE OUTLET,Pipe Nodes
 Component Set,7,BRANCH,TEMPHWLOOP DEMAND SIDE BYPASS BRANCH,PIPE:ADIABATIC,TEMPHWLOOP DEMAND SIDE BYPASS PIPE,TEMPHWLOOP DEMAND SIDE BYPASS PIPE INLET NODE,TEMPHWLOOP DEMAND SIDE BYPASS PIPE OUTLET NODE,Pipe Nodes
 Component Set,8,BRANCH,BAS MULLION TEMPHWLOOP DEMAND SIDE BRANCH,ZONEHVAC:LOWTEMPERATURERADIANT:CONSTANTFLOW,BAS MULLION,BAS MULLION HOT WATER INLET NODE,BAS MULLION HOT WATER OUTLET NODE,Hot Water Nodes
 Component Set,9,BRANCH,BAS MULLION TEMPCHWLOOP DEMAND SIDE BRANCH,ZONEHVAC:LOWTEMPERATURERADIANT:CONSTANTFLOW,BAS MULLION,BAS MULLION COLD WATER INLET NODE,BAS MULLION COLD WATER OUTLET NODE,Chilled Water Nodes
 Component Set,10,BRANCH,OFF-VOLKER MULLION TEMPHWLOOP DEMAND SIDE BRANCH,ZONEHVAC:LOWTEMPERATURERADIANT:CONSTANTFLOW,OFF-VOLKER MULLION,OFF-VOLKER MULLION HOT WATER INLET NODE,OFF-VOLKER MULLION HOT WATER OUTLET NODE,Hot Water Nodes
 Component Set,11,BRANCH,OFF-VOLKER MULLION TEMPCHWLOOP DEMAND SIDE BRANCH,ZONEHVAC:LOWTEMPERATURERADIANT:CONSTANTFLOW,OFF-VOLKER MULLION,OFF-VOLKER MULLION COLD WATER INLET NODE,OFF-VOLKER MULLION COLD WATER OUTLET NODE,Chilled Water Nodes
 Component Set,12,BRANCH,OFF-ERICA MULLION TEMPHWLOOP DEMAND SIDE BRANCH,ZONEHVAC:LOWTEMPERATURERADIANT:CONSTANTFLOW,OFF-ERICA MULLION,OFF-ERICA MULLION HOT WATER INLET NODE,OFF-ERICA MULLION HOT WATER OUTLET NODE,Hot Water Nodes
 Component Set,13,BRANCH,OFF-ERICA MULLION TEMPCHWLOOP DEMAND SIDE BRANCH,ZONEHVAC:LOWTEMPERATURERADIANT:CONSTANTFLOW,OFF-ERICA MULLION,OFF-ERICA MULLION COLD WATER INLET NODE,OFF-ERICA MULLION COLD WATER OUTLET NODE,Chilled Water Nodes
 Component Set,14,BRANCH,LARGECONF1 MULLION TEMPHWLOOP DEMAND SIDE BRANCH,ZONEHVAC:LOWTEMPERATURERADIANT:CONSTANTFLOW,LARGECONF1 MULLION,LARGECONF1 MULLION HOT WATER INLET NODE,LARGECONF1 MULLION HOT WATER OUTLET NODE,Hot Water Nodes
 Component Set,15,BRANCH,LARGECONF1 MULLION TEMPCHWLOOP DEMAND SIDE BRANCH,ZONEHVAC:LOWTEMPERATURERADIANT:CONSTANTFLOW,LARGECONF1 MULLION,LARGECONF1 MULLION COLD WATER INLET NODE,LARGECONF1 MULLION COLD WATER OUTLET NODE,Chilled Water Nodes
 Component Set,16,BRANCH,OFF-ANNIE MULLION TEMPHWLOOP DEMAND SIDE BRANCH,ZONEHVAC:LOWTEMPERATURERADIANT:CONSTANTFLOW,OFF-ANNIE MULLION,OFF-ANNIE MULLION HOT WATER INLET NODE,OFF-ANNIE MULLION HOT WATER OUTLET NODE,Hot Water Nodes
 Component Set,17,BRANCH,OFF-ANNIE MULLION TEMPCHWLOOP DEMAND SIDE BRANCH,ZONEHVAC:LOWTEMPERATURERADIANT:CONSTANTFLOW,OFF-ANNIE MULLION,OFF-ANNIE MULLION COLD WATER INLET NODE,OFF-ANNIE MULLION COLD WATER OUTLET NODE,Chilled Water Nodes
 Component Set,18,BRANCH,LARGECONF0 MULLION TEMPHWLOOP DEMAND SIDE BRANCH,ZONEHVAC:LOWTEMPERATURERADIANT:CONSTANTFLOW,LARGECONF0 MULLION,LARGECONF0 MULLION HOT WATER INLET NODE,LARGECONF0 MULLION HOT WATER OUTLET NODE,Hot Water Nodes
 Component Set,19,BRANCH,LARGECONF0 MULLION TEMPCHWLOOP DEMAND SIDE BRANCH,ZONEHVAC:LOWTEMPERATURERADIANT:CONSTANTFLOW,LARGECONF0 MULLION,LARGECONF0 MULLION COLD WATER INLET NODE,LARGECONF0 MULLION COLD WATER OUTLET NODE,Chilled Water Nodes
 Component Set,20,BRANCH,OFF-SUREKHA MULLION TEMPHWLOOP DEMAND SIDE BRANCH,ZONEHVAC:LOWTEMPERATURERADIANT:CONSTANTFLOW,OFF-SUREKHA MULLION,OFF-SUREKHA MULLION HOT WATER INLET NODE,OFF-SUREKHA MULLION HOT WATER OUTLET NODE,Hot Water Nodes
 Component Set,21,BRANCH,OFF-SUREKHA MULLION TEMPCHWLOOP DEMAND SIDE BRANCH,ZONEHVAC:LOWTEMPERATURERADIANT:CONSTANTFLOW,OFF-SUREKHA MULLION,OFF-SUREKHA MULLION COLD WATER INLET NODE,OFF-SUREKHA MULLION COLD WATER OUTLET NODE,Chilled Water Nodes
 Component Set,22,BRANCH,STAIRNCOM MULLION TEMPHWLOOP DEMAND SIDE BRANCH,ZONEHVAC:LOWTEMPERATURERADIANT:CONSTANTFLOW,STAIRNCOM MULLION,STAIRNCOM MULLION HOT WATER INLET NODE,STAIRNCOM MULLION HOT WATER OUTLET NODE,Hot Water Nodes
 Component Set,23,BRANCH,STAIRNCOM MULLION TEMPCHWLOOP DEMAND SIDE BRANCH,ZONEHVAC:LOWTEMPERATURERADIANT:CONSTANTFLOW,STAIRNCOM MULLION,STAIRNCOM MULLION COLD WATER INLET NODE,STAIRNCOM MULLION COLD WATER OUTLET NODE,Chilled Water Nodes
 Component Set,24,BRANCH,OFF-YUJIE MULLION TEMPHWLOOP DEMAND SIDE BRANCH,ZONEHVAC:LOWTEMPERATURERADIANT:CONSTANTFLOW,OFF-YUJIE MULLION,OFF-YUJIE MULLION HOT WATER INLET NODE,OFF-YUJIE MULLION HOT WATER OUTLET NODE,Hot Water Nodes
 Component Set,25,BRANCH,OFF-YUJIE MULLION TEMPCHWLOOP DEMAND SIDE BRANCH,ZONEHVAC:LOWTEMPERATURERADIANT:CONSTANTFLOW,OFF-YUJIE MULLION,OFF-YUJIE MULLION COLD WATER INLET NODE,OFF-YUJIE MULLION COLD WATER OUTLET NODE,Chilled Water Nodes
 Component Set,26,BRANCH,OFF-BAPP MULLION TEMPHWLOOP DEMAND SIDE BRANCH,ZONEHVAC:LOWTEMPERATURERADIANT:CONSTANTFLOW,OFF-BAPP MULLION,OFF-BAPP MULLION HOT WATER INLET NODE,OFF-BAPP MULLION HOT WATER OUTLET NODE,Hot Water Nodes
 Component Set,27,BRANCH,OFF-BAPP MULLION TEMPCHWLOOP DEMAND SIDE BRANCH,ZONEHVAC:LOWTEMPERATURERADIANT:CONSTANTFLOW,OFF-BAPP MULLION,OFF-BAPP MULLION COLD WATER INLET NODE,OFF-BAPP MULLION COLD WATER OUTLET NODE,Chilled Water Nodes
 Component Set,28,BRANCH,OFF-WEILI MULLION TEMPHWLOOP DEMAND SIDE BRANCH,ZONEHVAC:LOWTEMPERATURERADIANT:CONSTANTFLOW,OFF-WEILI MULLION,OFF-WEILI MULLION HOT WATER INLET NODE,OFF-WEILI MULLION HOT WATER OUTLET NODE,Hot Water Nodes
 Component Set,29,BRANCH,OFF-WEILI MULLION TEMPCHWLOOP DEMAND SIDE BRANCH,ZONEHVAC:LOWTEMPERATURERADIANT:CONSTANTFLOW,OFF-WEILI MULLION,OFF-WEILI MULLION COLD WATER INLET NODE,OFF-WEILI MULLION COLD WATER OUTLET NODE,Chilled Water Nodes
 Component Set,30,BRANCH,OFF-JAMES MULLION TEMPHWLOOP DEMAND SIDE BRANCH,ZONEHVAC:LOWTEMPERATURERADIANT:CONSTANTFLOW,OFF-JAMES MULLION,OFF-JAMES MULLION HOT WATER INLET NODE,OFF-JAMES MULLION HOT WATER OUTLET NODE,Hot Water Nodes
 Component Set,31,BRANCH,OFF-JAMES MULLION TEMPCHWLOOP DEMAND SIDE BRANCH,ZONEHVAC:LOWTEMPERATURERADIANT:CONSTANTFLOW,OFF-JAMES MULLION,OFF-JAMES MULLION COLD WATER INLET NODE,OFF-JAMES MULLION COLD WATER OUTLET NODE,Chilled Water Nodes
 Component Set,32,BRANCH,OFF-VIVIAN MULLION TEMPHWLOOP DEMAND SIDE BRANCH,ZONEHVAC:LOWTEMPERATURERADIANT:CONSTANTFLOW,OFF-VIVIAN MULLION,OFF-VIVIAN MULLION HOT WATER INLET NODE,OFF-VIVIAN MULLION HOT WATER OUTLET NODE,Hot Water Nodes
 Component Set,33,BRANCH,OFF-VIVIAN MULLION TEMPCHWLOOP DEMAND SIDE BRANCH,ZONEHVAC:LOWTEMPERATURERADIANT:CONSTANTFLOW,OFF-VIVIAN MULLION,OFF-VIVIAN MULLION COLD WATER INLET NODE,OFF-VIVIAN MULLION COLD WATER OUTLET NODE,Chilled Water Nodes
 Component Set,34,BRANCH,OFF-OMER MULLION TEMPHWLOOP DEMAND SIDE BRANCH,ZONEHVAC:LOWTEMPERATURERADIANT:CONSTANTFLOW,OFF-OMER MULLION,OFF-OMER MULLION HOT WATER INLET NODE,OFF-OMER MULLION HOT WATER OUTLET NODE,Hot Water Nodes
 Component Set,35,BRANCH,OFF-OMER MULLION TEMPCHWLOOP DEMAND SIDE BRANCH,ZONEHVAC:LOWTEMPERATURERADIANT:CONSTANTFLOW,OFF-OMER MULLION,OFF-OMER MULLION COLD WATER INLET NODE,OFF-OMER MULLION COLD WATER OUTLET NODE,Chilled Water Nodes
 Component Set,36,BRANCH,SMALLCONF MULLION TEMPHWLOOP DEMAND SIDE BRANCH,ZONEHVAC:LOWTEMPERATURERADIANT:CONSTANTFLOW,SMALLCONF MULLION,SMALLCONF MULLION HOT WATER INLET NODE,SMALLCONF MULLION HOT WATER OUTLET NODE,Hot Water Nodes
 Component Set,37,BRANCH,SMALLCONF MULLION TEMPCHWLOOP DEMAND SIDE BRANCH,ZONEHVAC:LOWTEMPERATURERADIANT:CONSTANTFLOW,SMALLCONF MULLION,SMALLCONF MULLION COLD WATER INLET NODE,SMALLCONF MULLION COLD WATER OUTLET NODE,Chilled Water Nodes
 Component Set,38,BRANCH,OFF-NINA MULLION TEMPHWLOOP DEMAND SIDE BRANCH,ZONEHVAC:LOWTEMPERATURERADIANT:CONSTANTFLOW,OFF-NINA MULLION,OFF-NINA MULLION HOT WATER INLET NODE,OFF-NINA MULLION HOT WATER OUTLET NODE,Hot Water Nodes
 Component Set,39,BRANCH,OFF-NINA MULLION TEMPCHWLOOP DEMAND SIDE BRANCH,ZONEHVAC:LOWTEMPERATURERADIANT:CONSTANTFLOW,OFF-NINA MULLION,OFF-NINA MULLION COLD WATER INLET NODE,OFF-NINA MULLION COLD WATER OUTLET NODE,Chilled Water Nodes
 Component Set,40,BRANCH,OFF-ZHIANG MULLION TEMPHWLOOP DEMAND SIDE BRANCH,ZONEHVAC:LOWTEMPERATURERADIANT:CONSTANTFLOW,OFF-ZHIANG MULLION,OFF-ZHIANG MULLION HOT WATER INLET NODE,OFF-ZHIANG MULLION HOT WATER OUTLET NODE,Hot Water Nodes
 Component Set,41,BRANCH,OFF-ZHIANG MULLION TEMPCHWLOOP DEMAND SIDE BRANCH,ZONEHVAC:LOWTEMPERATURERADIANT:CONSTANTFLOW,OFF-ZHIANG MULLION,OFF-ZHIANG MULLION COLD WATER INLET NODE,OFF-ZHIANG MULLION COLD WATER OUTLET NODE,Chilled Water Nodes
 Component Set,42,BRANCH,OFF-CHENLU MULLION TEMPHWLOOP DEMAND SIDE BRANCH,ZONEHVAC:LOWTEMPERATURERADIANT:CONSTANTFLOW,OFF-CHENLU MULLION,OFF-CHENLU MULLION HOT WATER INLET NODE,OFF-CHENLU MULLION HOT WATER OUTLET NODE,Hot Water Nodes
 Component Set,43,BRANCH,OFF-CHENLU MULLION TEMPCHWLOOP DEMAND SIDE BRANCH,ZONEHVAC:LOWTEMPERATURERADIANT:CONSTANTFLOW,OFF-CHENLU MULLION,OFF-CHENLU MULLION COLD WATER INLET NODE,OFF-CHENLU MULLION COLD WATER OUTLET NODE,Chilled Water Nodes
 Component Set,44,BRANCH,OFF-ZHIANG FAN COIL UNIT HEATING COIL TEMPHWLOOP DEMAND SIDE BRANCH,COIL:HEATING:WATER,OFF-ZHIANG FAN COIL UNIT HEATING COIL,OFF-ZHIANG FAN COIL UNIT HEATING COIL WATER INLET NODE,OFF-ZHIANG FAN COIL UNIT HEATING COIL WATER OUTLET NODE,Water Nodes
 Component Set,45,BRANCH,OFF-CHENLU FAN COIL UNIT HEATING COIL TEMPHWLOOP DEMAND SIDE BRANCH,COIL:HEATING:WATER,OFF-CHENLU FAN COIL UNIT HEATING COIL,OFF-CHENLU FAN COIL UNIT HEATING COIL WATER INLET NODE,OFF-CHENLU FAN COIL UNIT HEATING COIL WATER OUTLET NODE,Water Nodes
 Component Set,46,BRANCH,TEMPHWLOOP DEMAND SIDE OUTLET BRANCH,PIPE:ADIABATIC,TEMPHWLOOP DEMAND SIDE OUTLET BRANCH PIPE,TEMPHWLOOP DEMAND SIDE OUTLET BRANCH PIPE INLET,TEMPHWLOOP DEMAND SIDE OUTLET,Pipe Nodes
 Component Set,47,BRANCH,TEMPHWLOOP SUPPLY SIDE INLET BRANCH,PUMP:CONSTANTSPEED,TEMPHWLOOP SUPPLY PUMP,TEMPHWLOOP SUPPLY SIDE INLET,TEMPHWLOOP SUPPLY PUMP WATER OUTLET NODE,Water Nodes
 Component Set,48,BRANCH,TEMPHWLOOP SUPPLY SIDE BYPASS BRANCH,PIPE:ADIABATIC,TEMPHWLOOP SUPPLY SIDE BYPASS PIPE,TEMPHWLOOP SUPPLY SIDE BYPASS PIPE INLET NODE,TEMPHWLOOP SUPPLY SIDE BYPASS PIPE OUTLET NODE,Pipe Nodes
 Component Set,49,BRANCH,CMU DISTRICTHEATING TEMPHWLOOP SUPPLY SIDE BRANCH,DISTRICTHEATING,CMU DISTRICTHEATING,CMU DISTRICTHEATING WATER INLET NODE,CMU DISTRICTHEATING WATER OUTLET NODE,Hot Water Nodes
 Component Set,50,BRANCH,TEMPHWLOOP SUPPLY SIDE OUTLET BRANCH,PIPE:ADIABATIC,TEMPHWLOOP SUPPLY SIDE OUTLET BRANCH PIPE,TEMPHWLOOP SUPPLY SIDE OUTLET BRANCH PIPE INLET,TEMPHWLOOP SUPPLY SIDE OUTLET,Pipe Nodes
 Component Set,51,BRANCH,TEMPCHWLOOP DEMAND SIDE INLET BRANCH,PIPE:ADIABATIC,TEMPCHWLOOP DEMAND SIDE INLET BRANCH PIPE,TEMPCHWLOOP DEMAND SIDE INLET,TEMPCHWLOOP DEMAND SIDE INLET BRANCH PIPE OUTLET,Pipe Nodes
 Component Set,52,BRANCH,TEMPCHWLOOP DEMAND SIDE BYPASS BRANCH,PIPE:ADIABATIC,TEMPCHWLOOP DEMAND SIDE BYPASS PIPE,TEMPCHWLOOP DEMAND SIDE BYPASS PIPE INLET NODE,TEMPCHWLOOP DEMAND SIDE BYPASS PIPE OUTLET NODE,Pipe Nodes
 Component Set,53,BRANCH,BAS CHILLED CEILING TEMPCHWLOOP DEMAND SIDE BRANCH,ZONEHVAC:LOWTEMPERATURERADIANT:CONSTANTFLOW,BAS CHILLED CEILING,BAS CHILLED CEILING CHW WATER INLET NODE,BAS CHILLED CEILING CHW WATER OUTLET NODE,Chilled Water Nodes
 Component Set,54,BRANCH,BAS CHILLED CEILING TEMPHWLOOP DEMAND SIDE BRANCH,ZONEHVAC:LOWTEMPERATURERADIANT:CONSTANTFLOW,BAS CHILLED CEILING,BAS CHILLED CEILING HW WATER INLET NODE,BAS CHILLED CEILING HW WATER OUTLET NODE,Hot Water Nodes
 Component Set,55,BRANCH,OFF-VOLKER CHILLED CEILING TEMPCHWLOOP DEMAND SIDE BRANCH,ZONEHVAC:LOWTEMPERATURERADIANT:CONSTANTFLOW,OFF-VOLKER CHILLED CEILING,OFF-VOLKER CHILLED CEILING CHW WATER INLET NODE,OFF-VOLKER CHILLED CEILING CHW WATER OUTLET NODE,Chilled Water Nodes
 Component Set,56,BRANCH,OFF-VOLKER CHILLED CEILING TEMPHWLOOP DEMAND SIDE BRANCH,ZONEHVAC:LOWTEMPERATURERADIANT:CONSTANTFLOW,OFF-VOLKER CHILLED CEILING,OFF-VOLKER CHILLED CEILING HW WATER INLET NODE,OFF-VOLKER CHILLED CEILING HW WATER OUTLET NODE,Hot Water Nodes
 Component Set,57,BRANCH,OFF-ERICA CHILLED CEILING TEMPCHWLOOP DEMAND SIDE BRANCH,ZONEHVAC:LOWTEMPERATURERADIANT:CONSTANTFLOW,OFF-ERICA CHILLED CEILING,OFF-ERICA CHILLED CEILING CHW WATER INLET NODE,OFF-ERICA CHILLED CEILING CHW WATER OUTLET NODE,Chilled Water Nodes
 Component Set,58,BRANCH,OFF-ERICA CHILLED CEILING TEMPHWLOOP DEMAND SIDE BRANCH,ZONEHVAC:LOWTEMPERATURERADIANT:CONSTANTFLOW,OFF-ERICA CHILLED CEILING,OFF-ERICA CHILLED CEILING HW WATER INLET NODE,OFF-ERICA CHILLED CEILING HW WATER OUTLET NODE,Hot Water Nodes
 Component Set,59,BRANCH,LARGECONF1 COOLED BEAM TEMPCHWLOOP DEMAND SIDE BRANCH,AIRTERMINAL:SINGLEDUCT:CONSTANTVOLUME:COOLEDBEAM,LARGECONF1 COOLED BEAM,LARGECONF1 COOLED BEAM CHW INLET NODE,LARGECONF1 COOLED BEAM CHW OUTLET NODE,Water Nodes
 Component Set,60,BRANCH,OFF-ANNIE COOLED BEAM TEMPCHWLOOP DEMAND SIDE BRANCH,AIRTERMINAL:SINGLEDUCT:CONSTANTVOLUME:COOLEDBEAM,OFF-ANNIE COOLED BEAM,OFF-ANNIE COOLED BEAM CHW INLET NODE,OFF-ANNIE COOLED BEAM CHW OUTLET NODE,Water Nodes
 Component Set,61,BRANCH,LARGECONF0 COOLED BEAM TEMPCHWLOOP DEMAND SIDE BRANCH,AIRTERMINAL:SINGLEDUCT:CONSTANTVOLUME:COOLEDBEAM,LARGECONF0 COOLED BEAM,LARGECONF0 COOLED BEAM CHW INLET NODE,LARGECONF0 COOLED BEAM CHW OUTLET NODE,Water Nodes
 Component Set,62,BRANCH,OFF-SUREKHA COOLED BEAM TEMPCHWLOOP DEMAND SIDE BRANCH,AIRTERMINAL:SINGLEDUCT:CONSTANTVOLUME:COOLEDBEAM,OFF-SUREKHA COOLED BEAM,OFF-SUREKHA COOLED BEAM CHW INLET NODE,OFF-SUREKHA COOLED BEAM CHW OUTLET NODE,Water Nodes
 Component Set,63,BRANCH,OFF-ZHIANG FAN COIL UNIT COOLING COIL TEMPCHWLOOP DEMAND SIDE BRANCH,COIL:COOLING:WATER,OFF-ZHIANG FAN COIL UNIT COOLING COIL,OFF-ZHIANG FAN COIL UNIT COOLING COIL WATER INLET NODE,OFF-ZHIANG FAN COIL UNIT COOLING COIL WATER OUTLET NODE,Water Nodes
 Component Set,64,BRANCH,OFF-CHENLU FAN COIL UNIT COOLING COIL TEMPCHWLOOP DEMAND SIDE BRANCH,COIL:COOLING:WATER,OFF-CHENLU FAN COIL UNIT COOLING COIL,OFF-CHENLU FAN COIL UNIT COOLING COIL WATER INLET NODE,OFF-CHENLU FAN COIL UNIT COOLING COIL WATER OUTLET NODE,Water Nodes
 Component Set,65,BRANCH,KITCHEN CHILLED CEILING TEMPCHWLOOP DEMAND SIDE BRANCH,ZONEHVAC:LOWTEMPERATURERADIANT:CONSTANTFLOW,KITCHEN CHILLED CEILING,KITCHEN CHILLED CEILING CHW WATER INLET NODE,KITCHEN CHILLED CEILING CHW WATER OUTLET NODE,Chilled Water Nodes
 Component Set,66,BRANCH,KITCHEN CHILLED CEILING TEMPHWLOOP DEMAND SIDE BRANCH,ZONEHVAC:LOWTEMPERATURERADIANT:CONSTANTFLOW,KITCHEN CHILLED CEILING,KITCHEN CHILLED CEILING HW WATER INLET NODE,KITCHEN CHILLED CEILING HW WATER OUTLET NODE,Hot Water Nodes
 Component Set,67,BRANCH,TEMPCHWLOOP DEMAND SIDE OUTLET BRANCH,PIPE:ADIABATIC,TEMPCHWLOOP DEMAND SIDE OUTLET BRANCH PIPE,TEMPCHWLOOP DEMAND SIDE OUTLET BRANCH PIPE INLET,TEMPCHWLOOP DEMAND SIDE OUTLET,Pipe Nodes
 Component Set,68,BRANCH,TEMPCHWLOOP SUPPLY SIDE INLET BRANCH,PUMP:CONSTANTSPEED,TEMPCHWLOOP SUPPLY PUMP,TEMPCHWLOOP SUPPLY SIDE INLET,TEMPCHWLOOP SUPPLY PUMP WATER OUTLET NODE,Water Nodes
 Component Set,69,BRANCH,TEMPCHWLOOP SUPPLY SIDE BYPASS BRANCH,PIPE:ADIABATIC,TEMPCHWLOOP SUPPLY SIDE BYPASS PIPE,TEMPCHWLOOP SUPPLY SIDE BYPASS PIPE INLET NODE,TEMPCHWLOOP SUPPLY SIDE BYPASS PIPE OUTLET NODE,Pipe Nodes
 Component Set,70,BRANCH,CMU DISTRICTCOOLING TEMPCHWLOOP SUPPLY SIDE BRANCH,DISTRICTCOOLING,CMU DISTRICTCOOLING,CMU DISTRICTCOOLING CHW INLET NODE,CMU DISTRICTCOOLING CHW OUTLET NODE,Chilled Water Nodes
 Component Set,71,BRANCH,TEMPCHWLOOP SUPPLY SIDE OUTLET BRANCH,PIPE:ADIABATIC,TEMPCHWLOOP SUPPLY SIDE OUTLET BRANCH PIPE,TEMPCHWLOOP SUPPLY SIDE OUTLET BRANCH PIPE INLET,TEMPCHWLOOP SUPPLY SIDE OUTLET,Pipe Nodes
 Component Set,72,AIRLOOPHVAC:OUTDOORAIRSYSTEM,DOAS AHU  OUTSIDE AIR SYSTEM,OUTDOORAIR:MIXER,DOAS AHU  OUTDOOR AIR MIXER,DOAS AHU HEAT RECOVERY SUPPLY OUTLET,DOAS AHU MIXED AIR OUTLET,Air Nodes
 Component Set,73,ZONEHVAC:FOURPIPEFANCOIL,OFF-ZHIANG FAN COIL UNIT,OUTDOORAIR:MIXER,OFF-ZHIANG FAN COIL UNIT OUTDOOR AIR MIXER,OFF-ZHIANG FAN COIL UNIT OUTDOOR AIR NODE NAME,OFF-ZHIANG FAN COIL UNIT MIXED AIR OUTLET,Air Nodes
 Component Set,74,ZONEHVAC:FOURPIPEFANCOIL,OFF-CHENLU FAN COIL UNIT,OUTDOORAIR:MIXER,OFF-CHENLU FAN COIL UNIT OUTDOOR AIR MIXER,OFF-CHENLU FAN COIL UNIT OUTDOOR AIR NODE NAME,OFF-CHENLU FAN COIL UNIT MIXED AIR OUTLET,Air Nodes
 Component Set,75,ZONEHVAC:FOURPIPEFANCOIL,OFF-ZHIANG FAN COIL UNIT,COIL:HEATING:WATER,OFF-ZHIANG FAN COIL UNIT HEATING COIL,OFF-ZHIANG FAN COIL UNIT COOLING COIL OUTLET,OFF-ZHIANG FAN COIL UNIT SUPPLY INLET,Air Nodes
 Component Set,76,ZONEHVAC:FOURPIPEFANCOIL,OFF-CHENLU FAN COIL UNIT,COIL:HEATING:WATER,OFF-CHENLU FAN COIL UNIT HEATING COIL,OFF-CHENLU FAN COIL UNIT COOLING COIL OUTLET,OFF-CHENLU FAN COIL UNIT SUPPLY INLET,Air Nodes
 Component Set,77,ZONEHVAC:FOURPIPEFANCOIL,OFF-ZHIANG FAN COIL UNIT,COIL:COOLING:WATER,OFF-ZHIANG FAN COIL UNIT COOLING COIL,OFF-ZHIANG FAN COIL UNIT SUPPLY FAN OUTLET,OFF-ZHIANG FAN COIL UNIT COOLING COIL OUTLET,Air Nodes
 Component Set,78,ZONEHVAC:FOURPIPEFANCOIL,OFF-CHENLU FAN COIL UNIT,COIL:COOLING:WATER,OFF-CHENLU FAN COIL UNIT COOLING COIL,OFF-CHENLU FAN COIL UNIT SUPPLY FAN OUTLET,OFF-CHENLU FAN COIL UNIT COOLING COIL OUTLET,Air Nodes
 Component Set,79,DEHUMIDIFIER:DESICCANT:SYSTEM,DOAS AHU DESICCANT DEHUMIDIFIER,FAN:CONSTANTVOLUME,DESICCANT REGEN FAN,DOAS DESICCANT REGEN WHEEL AIR OUTLET,DOAS DESICCANT REGEN AIR RELIEF OUTLET,Air Nodes
 Component Set,80,ZONEHVAC:FOURPIPEFANCOIL,OFF-ZHIANG FAN COIL UNIT,FAN:ONOFF,OFF-ZHIANG FAN COIL UNIT SUPPLY FAN,OFF-ZHIANG FAN COIL UNIT MIXED AIR OUTLET,OFF-ZHIANG FAN COIL UNIT SUPPLY FAN OUTLET,Air Nodes
 Component Set,81,ZONEHVAC:FOURPIPEFANCOIL,OFF-CHENLU FAN COIL UNIT,FAN:ONOFF,OFF-CHENLU FAN COIL UNIT SUPPLY FAN,OFF-CHENLU FAN COIL UNIT MIXED AIR OUTLET,OFF-CHENLU FAN COIL UNIT SUPPLY FAN OUTLET,Air Nodes
 Component Set,82,ZONEHVAC:AIRDISTRIBUTIONUNIT,LARGECONF1 COOLED BEAM ADU,AIRTERMINAL:SINGLEDUCT:CONSTANTVOLUME:COOLEDBEAM,LARGECONF1 COOLED BEAM,DOAS ZONE SPLITTER OUTLET NODE LARGECONF1,LARGECONF1 COOLED BEAM SUPPLY INLET,Air Nodes
 Component Set,83,ZONEHVAC:AIRDISTRIBUTIONUNIT,OFF-ANNIE COOLED BEAM ADU,AIRTERMINAL:SINGLEDUCT:CONSTANTVOLUME:COOLEDBEAM,OFF-ANNIE COOLED BEAM,DOAS ZONE SPLITTER OUTLET NODE ANNIE,OFF-ANNIE COOLED BEAM SUPPLY INLET,Air Nodes
 Component Set,84,ZONEHVAC:AIRDISTRIBUTIONUNIT,LARGECONF0 COOLED BEAM ADU,AIRTERMINAL:SINGLEDUCT:CONSTANTVOLUME:COOLEDBEAM,LARGECONF0 COOLED BEAM,DOAS ZONE SPLITTER OUTLET NODE LARGECONF0,LARGECONF0 COOLED BEAM SUPPLY INLET,Air Nodes
 Component Set,85,ZONEHVAC:AIRDISTRIBUTIONUNIT,OFF-SUREKHA COOLED BEAM ADU,AIRTERMINAL:SINGLEDUCT:CONSTANTVOLUME:COOLEDBEAM,OFF-SUREKHA COOLED BEAM,DOAS ZONE SPLITTER OUTLET NODE SUREKHA,OFF-SUREKHA COOLED BEAM SUPPLY INLET,Air Nodes
 Component Set,86,AIRLOOPHVAC:OUTDOORAIRSYSTEM,DOAS AHU  OUTSIDE AIR SYSTEM,HEATEXCHANGER:AIRTOAIR:SENSIBLEANDLATENT,DOAS AHU  HEAT RECOVERY DEVICE,DOAS AHU OUTDOOR AIR INLET,DOAS AHU HEAT RECOVERY SUPPLY OUTLET,Process Air Nodes
 Component Set,87,DEHUMIDIFIER:DESICCANT:SYSTEM,DOAS AHU DESICCANT DEHUMIDIFIER,HEATEXCHANGER:DESICCANT:BALANCEDFLOW,DESICCANT HEAT EXCHANGER 1,DOAS AHU UNITARY COOLING COIL DX COOLING COIL AIR OUTLET NODE,DOAS SUPPLY SIDE OUTLET 1,Process Air Nodes
 Component Set,88,COILSYSTEM:COOLING:DX,DOAS AHU UNITARY COOLING COIL,COIL:COOLING:DX:SINGLESPEED,DOAS AHU UNITARY COOLING COIL DX COOLING COIL,DOAS AHU SUPPLY FAN OUTLET,DOAS AHU UNITARY COOLING COIL DX COOLING COIL AIR OUTLET NODE,Air Nodes
 Component Set,89,DEHUMIDIFIER:DESICCANT:SYSTEM,DOAS AHU DESICCANT DEHUMIDIFIER,COIL:HEATING:GAS,DOAS DESICCANT REGEN BURNER COIL,DOAS DESICCANT REGEN OUTDOOR AIR INLET,DOAS DESICCANT REGEN BURNER AIR OUTLET,Air Nodes
! ===============================================================
! <# Plant Loops>,<Number of Plant Loops>
 #Plant Loops,2
! <Plant Loop>,<Plant Loop Name>,<Loop Type>,<Inlet Node Name>,<Outlet Node Name>,<Branch List>,<Connector List>
! <Plant Loop Connector>,<Connector Type>,<Connector Name>,<Loop Name>,<Loop Type>,<Number of Inlets/Outlets>
! <Plant Loop Connector Branches>,<Connector Node Count>,<Connector Type>,<Connector Name>,<Inlet Branch>,<Outlet Branch>,<Loop Name>,<Loop Type>
! <Plant Loop Connector Nodes>,<Connector Node Count>,<Connector Type>,<Connector Name>,<Inlet Node>,<Outlet Node>,<Loop Name>,<Loop Type>
! <Plant Loop Supply Connection>,<Plant Loop Name>,<Supply Side Outlet Node Name>,<Demand Side Inlet Node Name>
! <Plant Loop Return Connection>,<Plant Loop Name>,<Demand Side Outlet Node Name>,<Supply Side Inlet Node Name>
 Plant Loop,TEMPHWLOOP,Demand,TEMPHWLOOP DEMAND SIDE INLET,TEMPHWLOOP DEMAND SIDE OUTLET,TEMPHWLOOP DEMAND SIDE BRANCHES,TEMPHWLOOP DEMAND SIDE CONNECTORS
   Plant Loop Connector,Splitter,TEMPHWLOOP DEMAND SPLITTER,TEMPHWLOOP,Demand,25
     Plant Loop Connector Branches,1,Splitter,TEMPHWLOOP DEMAND SPLITTER,TEMPHWLOOP DEMAND SIDE INLET BRANCH,TEMPHWLOOP DEMAND SIDE BYPASS BRANCH,TEMPHWLOOP,Demand
     Plant Loop Connector Nodes,   1,Splitter,TEMPHWLOOP DEMAND SPLITTER,TEMPHWLOOP DEMAND SIDE INLET BRANCH PIPE OUTLET,TEMPHWLOOP DEMAND SIDE BYPASS PIPE INLET NODE,TEMPHWLOOP,Demand
     Plant Loop Connector Branches,2,Splitter,TEMPHWLOOP DEMAND SPLITTER,TEMPHWLOOP DEMAND SIDE INLET BRANCH,BAS MULLION TEMPHWLOOP DEMAND SIDE BRANCH,TEMPHWLOOP,Demand
     Plant Loop Connector Nodes,   2,Splitter,TEMPHWLOOP DEMAND SPLITTER,TEMPHWLOOP DEMAND SIDE INLET BRANCH PIPE OUTLET,BAS MULLION HOT WATER INLET NODE,TEMPHWLOOP,Demand
     Plant Loop Connector Branches,3,Splitter,TEMPHWLOOP DEMAND SPLITTER,TEMPHWLOOP DEMAND SIDE INLET BRANCH,OFF-VOLKER MULLION TEMPHWLOOP DEMAND SIDE BRANCH,TEMPHWLOOP,Demand
     Plant Loop Connector Nodes,   3,Splitter,TEMPHWLOOP DEMAND SPLITTER,TEMPHWLOOP DEMAND SIDE INLET BRANCH PIPE OUTLET,OFF-VOLKER MULLION HOT WATER INLET NODE,TEMPHWLOOP,Demand
     Plant Loop Connector Branches,4,Splitter,TEMPHWLOOP DEMAND SPLITTER,TEMPHWLOOP DEMAND SIDE INLET BRANCH,OFF-ERICA MULLION TEMPHWLOOP DEMAND SIDE BRANCH,TEMPHWLOOP,Demand
     Plant Loop Connector Nodes,   4,Splitter,TEMPHWLOOP DEMAND SPLITTER,TEMPHWLOOP DEMAND SIDE INLET BRANCH PIPE OUTLET,OFF-ERICA MULLION HOT WATER INLET NODE,TEMPHWLOOP,Demand
     Plant Loop Connector Branches,5,Splitter,TEMPHWLOOP DEMAND SPLITTER,TEMPHWLOOP DEMAND SIDE INLET BRANCH,LARGECONF1 MULLION TEMPHWLOOP DEMAND SIDE BRANCH,TEMPHWLOOP,Demand
     Plant Loop Connector Nodes,   5,Splitter,TEMPHWLOOP DEMAND SPLITTER,TEMPHWLOOP DEMAND SIDE INLET BRANCH PIPE OUTLET,LARGECONF1 MULLION HOT WATER INLET NODE,TEMPHWLOOP,Demand
     Plant Loop Connector Branches,6,Splitter,TEMPHWLOOP DEMAND SPLITTER,TEMPHWLOOP DEMAND SIDE INLET BRANCH,OFF-ANNIE MULLION TEMPHWLOOP DEMAND SIDE BRANCH,TEMPHWLOOP,Demand
     Plant Loop Connector Nodes,   6,Splitter,TEMPHWLOOP DEMAND SPLITTER,TEMPHWLOOP DEMAND SIDE INLET BRANCH PIPE OUTLET,OFF-ANNIE MULLION HOT WATER INLET NODE,TEMPHWLOOP,Demand
     Plant Loop Connector Branches,7,Splitter,TEMPHWLOOP DEMAND SPLITTER,TEMPHWLOOP DEMAND SIDE INLET BRANCH,LARGECONF0 MULLION TEMPHWLOOP DEMAND SIDE BRANCH,TEMPHWLOOP,Demand
     Plant Loop Connector Nodes,   7,Splitter,TEMPHWLOOP DEMAND SPLITTER,TEMPHWLOOP DEMAND SIDE INLET BRANCH PIPE OUTLET,LARGECONF0 MULLION HOT WATER INLET NODE,TEMPHWLOOP,Demand
     Plant Loop Connector Branches,8,Splitter,TEMPHWLOOP DEMAND SPLITTER,TEMPHWLOOP DEMAND SIDE INLET BRANCH,OFF-SUREKHA MULLION TEMPHWLOOP DEMAND SIDE BRANCH,TEMPHWLOOP,Demand
     Plant Loop Connector Nodes,   8,Splitter,TEMPHWLOOP DEMAND SPLITTER,TEMPHWLOOP DEMAND SIDE INLET BRANCH PIPE OUTLET,OFF-SUREKHA MULLION HOT WATER INLET NODE,TEMPHWLOOP,Demand
     Plant Loop Connector Branches,9,Splitter,TEMPHWLOOP DEMAND SPLITTER,TEMPHWLOOP DEMAND SIDE INLET BRANCH,STAIRNCOM MULLION TEMPHWLOOP DEMAND SIDE BRANCH,TEMPHWLOOP,Demand
     Plant Loop Connector Nodes,   9,Splitter,TEMPHWLOOP DEMAND SPLITTER,TEMPHWLOOP DEMAND SIDE INLET BRANCH PIPE OUTLET,STAIRNCOM MULLION HOT WATER INLET NODE,TEMPHWLOOP,Demand
     Plant Loop Connector Branches,10,Splitter,TEMPHWLOOP DEMAND SPLITTER,TEMPHWLOOP DEMAND SIDE INLET BRANCH,OFF-YUJIE MULLION TEMPHWLOOP DEMAND SIDE BRANCH,TEMPHWLOOP,Demand
     Plant Loop Connector Nodes,   10,Splitter,TEMPHWLOOP DEMAND SPLITTER,TEMPHWLOOP DEMAND SIDE INLET BRANCH PIPE OUTLET,OFF-YUJIE MULLION HOT WATER INLET NODE,TEMPHWLOOP,Demand
     Plant Loop Connector Branches,11,Splitter,TEMPHWLOOP DEMAND SPLITTER,TEMPHWLOOP DEMAND SIDE INLET BRANCH,OFF-BAPP MULLION TEMPHWLOOP DEMAND SIDE BRANCH,TEMPHWLOOP,Demand
     Plant Loop Connector Nodes,   11,Splitter,TEMPHWLOOP DEMAND SPLITTER,TEMPHWLOOP DEMAND SIDE INLET BRANCH PIPE OUTLET,OFF-BAPP MULLION HOT WATER INLET NODE,TEMPHWLOOP,Demand
     Plant Loop Connector Branches,12,Splitter,TEMPHWLOOP DEMAND SPLITTER,TEMPHWLOOP DEMAND SIDE INLET BRANCH,OFF-WEILI MULLION TEMPHWLOOP DEMAND SIDE BRANCH,TEMPHWLOOP,Demand
     Plant Loop Connector Nodes,   12,Splitter,TEMPHWLOOP DEMAND SPLITTER,TEMPHWLOOP DEMAND SIDE INLET BRANCH PIPE OUTLET,OFF-WEILI MULLION HOT WATER INLET NODE,TEMPHWLOOP,Demand
     Plant Loop Connector Branches,13,Splitter,TEMPHWLOOP DEMAND SPLITTER,TEMPHWLOOP DEMAND SIDE INLET BRANCH,OFF-JAMES MULLION TEMPHWLOOP DEMAND SIDE BRANCH,TEMPHWLOOP,Demand
     Plant Loop Connector Nodes,   13,Splitter,TEMPHWLOOP DEMAND SPLITTER,TEMPHWLOOP DEMAND SIDE INLET BRANCH PIPE OUTLET,OFF-JAMES MULLION HOT WATER INLET NODE,TEMPHWLOOP,Demand
     Plant Loop Connector Branches,14,Splitter,TEMPHWLOOP DEMAND SPLITTER,TEMPHWLOOP DEMAND SIDE INLET BRANCH,OFF-VIVIAN MULLION TEMPHWLOOP DEMAND SIDE BRANCH,TEMPHWLOOP,Demand
     Plant Loop Connector Nodes,   14,Splitter,TEMPHWLOOP DEMAND SPLITTER,TEMPHWLOOP DEMAND SIDE INLET BRANCH PIPE OUTLET,OFF-VIVIAN MULLION HOT WATER INLET NODE,TEMPHWLOOP,Demand
     Plant Loop Connector Branches,15,Splitter,TEMPHWLOOP DEMAND SPLITTER,TEMPHWLOOP DEMAND SIDE INLET BRANCH,OFF-OMER MULLION TEMPHWLOOP DEMAND SIDE BRANCH,TEMPHWLOOP,Demand
     Plant Loop Connector Nodes,   15,Splitter,TEMPHWLOOP DEMAND SPLITTER,TEMPHWLOOP DEMAND SIDE INLET BRANCH PIPE OUTLET,OFF-OMER MULLION HOT WATER INLET NODE,TEMPHWLOOP,Demand
     Plant Loop Connector Branches,16,Splitter,TEMPHWLOOP DEMAND SPLITTER,TEMPHWLOOP DEMAND SIDE INLET BRANCH,SMALLCONF MULLION TEMPHWLOOP DEMAND SIDE BRANCH,TEMPHWLOOP,Demand
     Plant Loop Connector Nodes,   16,Splitter,TEMPHWLOOP DEMAND SPLITTER,TEMPHWLOOP DEMAND SIDE INLET BRANCH PIPE OUTLET,SMALLCONF MULLION HOT WATER INLET NODE,TEMPHWLOOP,Demand
     Plant Loop Connector Branches,17,Splitter,TEMPHWLOOP DEMAND SPLITTER,TEMPHWLOOP DEMAND SIDE INLET BRANCH,OFF-NINA MULLION TEMPHWLOOP DEMAND SIDE BRANCH,TEMPHWLOOP,Demand
     Plant Loop Connector Nodes,   17,Splitter,TEMPHWLOOP DEMAND SPLITTER,TEMPHWLOOP DEMAND SIDE INLET BRANCH PIPE OUTLET,OFF-NINA MULLION HOT WATER INLET NODE,TEMPHWLOOP,Demand
     Plant Loop Connector Branches,18,Splitter,TEMPHWLOOP DEMAND SPLITTER,TEMPHWLOOP DEMAND SIDE INLET BRANCH,OFF-ZHIANG MULLION TEMPHWLOOP DEMAND SIDE BRANCH,TEMPHWLOOP,Demand
     Plant Loop Connector Nodes,   18,Splitter,TEMPHWLOOP DEMAND SPLITTER,TEMPHWLOOP DEMAND SIDE INLET BRANCH PIPE OUTLET,OFF-ZHIANG MULLION HOT WATER INLET NODE,TEMPHWLOOP,Demand
     Plant Loop Connector Branches,19,Splitter,TEMPHWLOOP DEMAND SPLITTER,TEMPHWLOOP DEMAND SIDE INLET BRANCH,OFF-CHENLU MULLION TEMPHWLOOP DEMAND SIDE BRANCH,TEMPHWLOOP,Demand
     Plant Loop Connector Nodes,   19,Splitter,TEMPHWLOOP DEMAND SPLITTER,TEMPHWLOOP DEMAND SIDE INLET BRANCH PIPE OUTLET,OFF-CHENLU MULLION HOT WATER INLET NODE,TEMPHWLOOP,Demand
     Plant Loop Connector Branches,20,Splitter,TEMPHWLOOP DEMAND SPLITTER,TEMPHWLOOP DEMAND SIDE INLET BRANCH,OFF-ZHIANG FAN COIL UNIT HEATING COIL TEMPHWLOOP DEMAND SIDE BRANCH,TEMPHWLOOP,Demand
     Plant Loop Connector Nodes,   20,Splitter,TEMPHWLOOP DEMAND SPLITTER,TEMPHWLOOP DEMAND SIDE INLET BRANCH PIPE OUTLET,OFF-ZHIANG FAN COIL UNIT HEATING COIL WATER INLET NODE,TEMPHWLOOP,Demand
     Plant Loop Connector Branches,21,Splitter,TEMPHWLOOP DEMAND SPLITTER,TEMPHWLOOP DEMAND SIDE INLET BRANCH,OFF-CHENLU FAN COIL UNIT HEATING COIL TEMPHWLOOP DEMAND SIDE BRANCH,TEMPHWLOOP,Demand
     Plant Loop Connector Nodes,   21,Splitter,TEMPHWLOOP DEMAND SPLITTER,TEMPHWLOOP DEMAND SIDE INLET BRANCH PIPE OUTLET,OFF-CHENLU FAN COIL UNIT HEATING COIL WATER INLET NODE,TEMPHWLOOP,Demand
     Plant Loop Connector Branches,22,Splitter,TEMPHWLOOP DEMAND SPLITTER,TEMPHWLOOP DEMAND SIDE INLET BRANCH,BAS CHILLED CEILING TEMPHWLOOP DEMAND SIDE BRANCH,TEMPHWLOOP,Demand
     Plant Loop Connector Nodes,   22,Splitter,TEMPHWLOOP DEMAND SPLITTER,TEMPHWLOOP DEMAND SIDE INLET BRANCH PIPE OUTLET,BAS CHILLED CEILING HW WATER INLET NODE,TEMPHWLOOP,Demand
     Plant Loop Connector Branches,23,Splitter,TEMPHWLOOP DEMAND SPLITTER,TEMPHWLOOP DEMAND SIDE INLET BRANCH,OFF-VOLKER CHILLED CEILING TEMPHWLOOP DEMAND SIDE BRANCH,TEMPHWLOOP,Demand
     Plant Loop Connector Nodes,   23,Splitter,TEMPHWLOOP DEMAND SPLITTER,TEMPHWLOOP DEMAND SIDE INLET BRANCH PIPE OUTLET,OFF-VOLKER CHILLED CEILING HW WATER INLET NODE,TEMPHWLOOP,Demand
     Plant Loop Connector Branches,24,Splitter,TEMPHWLOOP DEMAND SPLITTER,TEMPHWLOOP DEMAND SIDE INLET BRANCH,OFF-ERICA CHILLED CEILING TEMPHWLOOP DEMAND SIDE BRANCH,TEMPHWLOOP,Demand
     Plant Loop Connector Nodes,   24,Splitter,TEMPHWLOOP DEMAND SPLITTER,TEMPHWLOOP DEMAND SIDE INLET BRANCH PIPE OUTLET,OFF-ERICA CHILLED CEILING HW WATER INLET NODE,TEMPHWLOOP,Demand
     Plant Loop Connector Branches,25,Splitter,TEMPHWLOOP DEMAND SPLITTER,TEMPHWLOOP DEMAND SIDE INLET BRANCH,KITCHEN CHILLED CEILING TEMPHWLOOP DEMAND SIDE BRANCH,TEMPHWLOOP,Demand
     Plant Loop Connector Nodes,   25,Splitter,TEMPHWLOOP DEMAND SPLITTER,TEMPHWLOOP DEMAND SIDE INLET BRANCH PIPE OUTLET,KITCHEN CHILLED CEILING HW WATER INLET NODE,TEMPHWLOOP,Demand
   Plant Loop Connector,Mixer,TEMPHWLOOP DEMAND MIXER,TEMPHWLOOP,Demand,25
     Plant Loop Connector Branches,1,Mixer,TEMPHWLOOP DEMAND MIXER,LARGECONF1 MULLION TEMPHWLOOP DEMAND SIDE BRANCH,TEMPHWLOOP DEMAND SIDE OUTLET BRANCH,TEMPHWLOOP,Demand
     Plant Loop Connector Nodes,   1,Mixer,TEMPHWLOOP DEMAND MIXER,LARGECONF1 MULLION HOT WATER OUTLET NODE,TEMPHWLOOP DEMAND SIDE OUTLET BRANCH PIPE INLET,TEMPHWLOOP,Demand
     Plant Loop Connector Branches,2,Mixer,TEMPHWLOOP DEMAND MIXER,OFF-ANNIE MULLION TEMPHWLOOP DEMAND SIDE BRANCH,TEMPHWLOOP DEMAND SIDE OUTLET BRANCH,TEMPHWLOOP,Demand
     Plant Loop Connector Nodes,   2,Mixer,TEMPHWLOOP DEMAND MIXER,OFF-ANNIE MULLION HOT WATER OUTLET NODE,TEMPHWLOOP DEMAND SIDE OUTLET BRANCH PIPE INLET,TEMPHWLOOP,Demand
     Plant Loop Connector Branches,3,Mixer,TEMPHWLOOP DEMAND MIXER,LARGECONF0 MULLION TEMPHWLOOP DEMAND SIDE BRANCH,TEMPHWLOOP DEMAND SIDE OUTLET BRANCH,TEMPHWLOOP,Demand
     Plant Loop Connector Nodes,   3,Mixer,TEMPHWLOOP DEMAND MIXER,LARGECONF0 MULLION HOT WATER OUTLET NODE,TEMPHWLOOP DEMAND SIDE OUTLET BRANCH PIPE INLET,TEMPHWLOOP,Demand
     Plant Loop Connector Branches,4,Mixer,TEMPHWLOOP DEMAND MIXER,OFF-SUREKHA MULLION TEMPHWLOOP DEMAND SIDE BRANCH,TEMPHWLOOP DEMAND SIDE OUTLET BRANCH,TEMPHWLOOP,Demand
     Plant Loop Connector Nodes,   4,Mixer,TEMPHWLOOP DEMAND MIXER,OFF-SUREKHA MULLION HOT WATER OUTLET NODE,TEMPHWLOOP DEMAND SIDE OUTLET BRANCH PIPE INLET,TEMPHWLOOP,Demand
     Plant Loop Connector Branches,5,Mixer,TEMPHWLOOP DEMAND MIXER,TEMPHWLOOP DEMAND SIDE BYPASS BRANCH,TEMPHWLOOP DEMAND SIDE OUTLET BRANCH,TEMPHWLOOP,Demand
     Plant Loop Connector Nodes,   5,Mixer,TEMPHWLOOP DEMAND MIXER,TEMPHWLOOP DEMAND SIDE BYPASS PIPE OUTLET NODE,TEMPHWLOOP DEMAND SIDE OUTLET BRANCH PIPE INLET,TEMPHWLOOP,Demand
     Plant Loop Connector Branches,6,Mixer,TEMPHWLOOP DEMAND MIXER,BAS MULLION TEMPHWLOOP DEMAND SIDE BRANCH,TEMPHWLOOP DEMAND SIDE OUTLET BRANCH,TEMPHWLOOP,Demand
     Plant Loop Connector Nodes,   6,Mixer,TEMPHWLOOP DEMAND MIXER,BAS MULLION HOT WATER OUTLET NODE,TEMPHWLOOP DEMAND SIDE OUTLET BRANCH PIPE INLET,TEMPHWLOOP,Demand
     Plant Loop Connector Branches,7,Mixer,TEMPHWLOOP DEMAND MIXER,OFF-VOLKER MULLION TEMPHWLOOP DEMAND SIDE BRANCH,TEMPHWLOOP DEMAND SIDE OUTLET BRANCH,TEMPHWLOOP,Demand
     Plant Loop Connector Nodes,   7,Mixer,TEMPHWLOOP DEMAND MIXER,OFF-VOLKER MULLION HOT WATER OUTLET NODE,TEMPHWLOOP DEMAND SIDE OUTLET BRANCH PIPE INLET,TEMPHWLOOP,Demand
     Plant Loop Connector Branches,8,Mixer,TEMPHWLOOP DEMAND MIXER,OFF-ERICA MULLION TEMPHWLOOP DEMAND SIDE BRANCH,TEMPHWLOOP DEMAND SIDE OUTLET BRANCH,TEMPHWLOOP,Demand
     Plant Loop Connector Nodes,   8,Mixer,TEMPHWLOOP DEMAND MIXER,OFF-ERICA MULLION HOT WATER OUTLET NODE,TEMPHWLOOP DEMAND SIDE OUTLET BRANCH PIPE INLET,TEMPHWLOOP,Demand
     Plant Loop Connector Branches,9,Mixer,TEMPHWLOOP DEMAND MIXER,STAIRNCOM MULLION TEMPHWLOOP DEMAND SIDE BRANCH,TEMPHWLOOP DEMAND SIDE OUTLET BRANCH,TEMPHWLOOP,Demand
     Plant Loop Connector Nodes,   9,Mixer,TEMPHWLOOP DEMAND MIXER,STAIRNCOM MULLION HOT WATER OUTLET NODE,TEMPHWLOOP DEMAND SIDE OUTLET BRANCH PIPE INLET,TEMPHWLOOP,Demand
     Plant Loop Connector Branches,10,Mixer,TEMPHWLOOP DEMAND MIXER,OFF-YUJIE MULLION TEMPHWLOOP DEMAND SIDE BRANCH,TEMPHWLOOP DEMAND SIDE OUTLET BRANCH,TEMPHWLOOP,Demand
     Plant Loop Connector Nodes,   10,Mixer,TEMPHWLOOP DEMAND MIXER,OFF-YUJIE MULLION HOT WATER OUTLET NODE,TEMPHWLOOP DEMAND SIDE OUTLET BRANCH PIPE INLET,TEMPHWLOOP,Demand
     Plant Loop Connector Branches,11,Mixer,TEMPHWLOOP DEMAND MIXER,OFF-BAPP MULLION TEMPHWLOOP DEMAND SIDE BRANCH,TEMPHWLOOP DEMAND SIDE OUTLET BRANCH,TEMPHWLOOP,Demand
     Plant Loop Connector Nodes,   11,Mixer,TEMPHWLOOP DEMAND MIXER,OFF-BAPP MULLION HOT WATER OUTLET NODE,TEMPHWLOOP DEMAND SIDE OUTLET BRANCH PIPE INLET,TEMPHWLOOP,Demand
     Plant Loop Connector Branches,12,Mixer,TEMPHWLOOP DEMAND MIXER,OFF-WEILI MULLION TEMPHWLOOP DEMAND SIDE BRANCH,TEMPHWLOOP DEMAND SIDE OUTLET BRANCH,TEMPHWLOOP,Demand
     Plant Loop Connector Nodes,   12,Mixer,TEMPHWLOOP DEMAND MIXER,OFF-WEILI MULLION HOT WATER OUTLET NODE,TEMPHWLOOP DEMAND SIDE OUTLET BRANCH PIPE INLET,TEMPHWLOOP,Demand
     Plant Loop Connector Branches,13,Mixer,TEMPHWLOOP DEMAND MIXER,OFF-JAMES MULLION TEMPHWLOOP DEMAND SIDE BRANCH,TEMPHWLOOP DEMAND SIDE OUTLET BRANCH,TEMPHWLOOP,Demand
     Plant Loop Connector Nodes,   13,Mixer,TEMPHWLOOP DEMAND MIXER,OFF-JAMES MULLION HOT WATER OUTLET NODE,TEMPHWLOOP DEMAND SIDE OUTLET BRANCH PIPE INLET,TEMPHWLOOP,Demand
     Plant Loop Connector Branches,14,Mixer,TEMPHWLOOP DEMAND MIXER,OFF-VIVIAN MULLION TEMPHWLOOP DEMAND SIDE BRANCH,TEMPHWLOOP DEMAND SIDE OUTLET BRANCH,TEMPHWLOOP,Demand
     Plant Loop Connector Nodes,   14,Mixer,TEMPHWLOOP DEMAND MIXER,OFF-VIVIAN MULLION HOT WATER OUTLET NODE,TEMPHWLOOP DEMAND SIDE OUTLET BRANCH PIPE INLET,TEMPHWLOOP,Demand
     Plant Loop Connector Branches,15,Mixer,TEMPHWLOOP DEMAND MIXER,OFF-OMER MULLION TEMPHWLOOP DEMAND SIDE BRANCH,TEMPHWLOOP DEMAND SIDE OUTLET BRANCH,TEMPHWLOOP,Demand
     Plant Loop Connector Nodes,   15,Mixer,TEMPHWLOOP DEMAND MIXER,OFF-OMER MULLION HOT WATER OUTLET NODE,TEMPHWLOOP DEMAND SIDE OUTLET BRANCH PIPE INLET,TEMPHWLOOP,Demand
     Plant Loop Connector Branches,16,Mixer,TEMPHWLOOP DEMAND MIXER,SMALLCONF MULLION TEMPHWLOOP DEMAND SIDE BRANCH,TEMPHWLOOP DEMAND SIDE OUTLET BRANCH,TEMPHWLOOP,Demand
     Plant Loop Connector Nodes,   16,Mixer,TEMPHWLOOP DEMAND MIXER,SMALLCONF MULLION HOT WATER OUTLET NODE,TEMPHWLOOP DEMAND SIDE OUTLET BRANCH PIPE INLET,TEMPHWLOOP,Demand
     Plant Loop Connector Branches,17,Mixer,TEMPHWLOOP DEMAND MIXER,OFF-NINA MULLION TEMPHWLOOP DEMAND SIDE BRANCH,TEMPHWLOOP DEMAND SIDE OUTLET BRANCH,TEMPHWLOOP,Demand
     Plant Loop Connector Nodes,   17,Mixer,TEMPHWLOOP DEMAND MIXER,OFF-NINA MULLION HOT WATER OUTLET NODE,TEMPHWLOOP DEMAND SIDE OUTLET BRANCH PIPE INLET,TEMPHWLOOP,Demand
     Plant Loop Connector Branches,18,Mixer,TEMPHWLOOP DEMAND MIXER,OFF-ZHIANG MULLION TEMPHWLOOP DEMAND SIDE BRANCH,TEMPHWLOOP DEMAND SIDE OUTLET BRANCH,TEMPHWLOOP,Demand
     Plant Loop Connector Nodes,   18,Mixer,TEMPHWLOOP DEMAND MIXER,OFF-ZHIANG MULLION HOT WATER OUTLET NODE,TEMPHWLOOP DEMAND SIDE OUTLET BRANCH PIPE INLET,TEMPHWLOOP,Demand
     Plant Loop Connector Branches,19,Mixer,TEMPHWLOOP DEMAND MIXER,OFF-CHENLU MULLION TEMPHWLOOP DEMAND SIDE BRANCH,TEMPHWLOOP DEMAND SIDE OUTLET BRANCH,TEMPHWLOOP,Demand
     Plant Loop Connector Nodes,   19,Mixer,TEMPHWLOOP DEMAND MIXER,OFF-CHENLU MULLION HOT WATER OUTLET NODE,TEMPHWLOOP DEMAND SIDE OUTLET BRANCH PIPE INLET,TEMPHWLOOP,Demand
     Plant Loop Connector Branches,20,Mixer,TEMPHWLOOP DEMAND MIXER,OFF-ZHIANG FAN COIL UNIT HEATING COIL TEMPHWLOOP DEMAND SIDE BRANCH,TEMPHWLOOP DEMAND SIDE OUTLET BRANCH,TEMPHWLOOP,Demand
     Plant Loop Connector Nodes,   20,Mixer,TEMPHWLOOP DEMAND MIXER,OFF-ZHIANG FAN COIL UNIT HEATING COIL WATER OUTLET NODE,TEMPHWLOOP DEMAND SIDE OUTLET BRANCH PIPE INLET,TEMPHWLOOP,Demand
     Plant Loop Connector Branches,21,Mixer,TEMPHWLOOP DEMAND MIXER,OFF-CHENLU FAN COIL UNIT HEATING COIL TEMPHWLOOP DEMAND SIDE BRANCH,TEMPHWLOOP DEMAND SIDE OUTLET BRANCH,TEMPHWLOOP,Demand
     Plant Loop Connector Nodes,   21,Mixer,TEMPHWLOOP DEMAND MIXER,OFF-CHENLU FAN COIL UNIT HEATING COIL WATER OUTLET NODE,TEMPHWLOOP DEMAND SIDE OUTLET BRANCH PIPE INLET,TEMPHWLOOP,Demand
     Plant Loop Connector Branches,22,Mixer,TEMPHWLOOP DEMAND MIXER,BAS CHILLED CEILING TEMPHWLOOP DEMAND SIDE BRANCH,TEMPHWLOOP DEMAND SIDE OUTLET BRANCH,TEMPHWLOOP,Demand
     Plant Loop Connector Nodes,   22,Mixer,TEMPHWLOOP DEMAND MIXER,BAS CHILLED CEILING HW WATER OUTLET NODE,TEMPHWLOOP DEMAND SIDE OUTLET BRANCH PIPE INLET,TEMPHWLOOP,Demand
     Plant Loop Connector Branches,23,Mixer,TEMPHWLOOP DEMAND MIXER,OFF-VOLKER CHILLED CEILING TEMPHWLOOP DEMAND SIDE BRANCH,TEMPHWLOOP DEMAND SIDE OUTLET BRANCH,TEMPHWLOOP,Demand
     Plant Loop Connector Nodes,   23,Mixer,TEMPHWLOOP DEMAND MIXER,OFF-VOLKER CHILLED CEILING HW WATER OUTLET NODE,TEMPHWLOOP DEMAND SIDE OUTLET BRANCH PIPE INLET,TEMPHWLOOP,Demand
     Plant Loop Connector Branches,24,Mixer,TEMPHWLOOP DEMAND MIXER,OFF-ERICA CHILLED CEILING TEMPHWLOOP DEMAND SIDE BRANCH,TEMPHWLOOP DEMAND SIDE OUTLET BRANCH,TEMPHWLOOP,Demand
     Plant Loop Connector Nodes,   24,Mixer,TEMPHWLOOP DEMAND MIXER,OFF-ERICA CHILLED CEILING HW WATER OUTLET NODE,TEMPHWLOOP DEMAND SIDE OUTLET BRANCH PIPE INLET,TEMPHWLOOP,Demand
     Plant Loop Connector Branches,25,Mixer,TEMPHWLOOP DEMAND MIXER,KITCHEN CHILLED CEILING TEMPHWLOOP DEMAND SIDE BRANCH,TEMPHWLOOP DEMAND SIDE OUTLET BRANCH,TEMPHWLOOP,Demand
     Plant Loop Connector Nodes,   25,Mixer,TEMPHWLOOP DEMAND MIXER,KITCHEN CHILLED CEILING HW WATER OUTLET NODE,TEMPHWLOOP DEMAND SIDE OUTLET BRANCH PIPE INLET,TEMPHWLOOP,Demand
 Plant Loop,TEMPHWLOOP,Supply,TEMPHWLOOP SUPPLY SIDE INLET,TEMPHWLOOP SUPPLY SIDE OUTLET,TEMPHWLOOP SUPPLY SIDE BRANCHES,TEMPHWLOOP SUPPLY SIDE CONNECTORS
   Plant Loop Connector,Splitter,TEMPHWLOOP SUPPLY SPLITTER,TEMPHWLOOP,Supply,2
     Plant Loop Connector Branches,1,Splitter,TEMPHWLOOP SUPPLY SPLITTER,TEMPHWLOOP SUPPLY SIDE INLET BRANCH,TEMPHWLOOP SUPPLY SIDE BYPASS BRANCH,TEMPHWLOOP,Supply
     Plant Loop Connector Nodes,   1,Splitter,TEMPHWLOOP SUPPLY SPLITTER,TEMPHWLOOP SUPPLY PUMP WATER OUTLET NODE,TEMPHWLOOP SUPPLY SIDE BYPASS PIPE INLET NODE,TEMPHWLOOP,Supply
     Plant Loop Connector Branches,2,Splitter,TEMPHWLOOP SUPPLY SPLITTER,TEMPHWLOOP SUPPLY SIDE INLET BRANCH,CMU DISTRICTHEATING TEMPHWLOOP SUPPLY SIDE BRANCH,TEMPHWLOOP,Supply
     Plant Loop Connector Nodes,   2,Splitter,TEMPHWLOOP SUPPLY SPLITTER,TEMPHWLOOP SUPPLY PUMP WATER OUTLET NODE,CMU DISTRICTHEATING WATER INLET NODE,TEMPHWLOOP,Supply
   Plant Loop Connector,Mixer,TEMPHWLOOP SUPPLY MIXER,TEMPHWLOOP,Supply,2
     Plant Loop Connector Branches,1,Mixer,TEMPHWLOOP SUPPLY MIXER,CMU DISTRICTHEATING TEMPHWLOOP SUPPLY SIDE BRANCH,TEMPHWLOOP SUPPLY SIDE OUTLET BRANCH,TEMPHWLOOP,Supply
     Plant Loop Connector Nodes,   1,Mixer,TEMPHWLOOP SUPPLY MIXER,CMU DISTRICTHEATING WATER OUTLET NODE,TEMPHWLOOP SUPPLY SIDE OUTLET BRANCH PIPE INLET,TEMPHWLOOP,Supply
     Plant Loop Connector Branches,2,Mixer,TEMPHWLOOP SUPPLY MIXER,TEMPHWLOOP SUPPLY SIDE BYPASS BRANCH,TEMPHWLOOP SUPPLY SIDE OUTLET BRANCH,TEMPHWLOOP,Supply
     Plant Loop Connector Nodes,   2,Mixer,TEMPHWLOOP SUPPLY MIXER,TEMPHWLOOP SUPPLY SIDE BYPASS PIPE OUTLET NODE,TEMPHWLOOP SUPPLY SIDE OUTLET BRANCH PIPE INLET,TEMPHWLOOP,Supply
 Plant Loop Supply Connection,TEMPHWLOOP,TEMPHWLOOP SUPPLY SIDE OUTLET,TEMPHWLOOP DEMAND SIDE INLET
 Plant Loop Return Connection,TEMPHWLOOP,TEMPHWLOOP DEMAND SIDE OUTLET,TEMPHWLOOP SUPPLY SIDE INLET
 Plant Loop,TEMPCHWLOOP,Demand,TEMPCHWLOOP DEMAND SIDE INLET,TEMPCHWLOOP DEMAND SIDE OUTLET,TEMPCHWLOOP DEMAND SIDE BRANCHES,TEMPCHWLOOP DEMAND SIDE CONNECTORS
   Plant Loop Connector,Splitter,TEMPCHWLOOP DEMAND SPLITTER,TEMPCHWLOOP,Demand,29
     Plant Loop Connector Branches,1,Splitter,TEMPCHWLOOP DEMAND SPLITTER,TEMPCHWLOOP DEMAND SIDE INLET BRANCH,TEMPCHWLOOP DEMAND SIDE BYPASS BRANCH,TEMPCHWLOOP,Demand
     Plant Loop Connector Nodes,   1,Splitter,TEMPCHWLOOP DEMAND SPLITTER,TEMPCHWLOOP DEMAND SIDE INLET BRANCH PIPE OUTLET,TEMPCHWLOOP DEMAND SIDE BYPASS PIPE INLET NODE,TEMPCHWLOOP,Demand
     Plant Loop Connector Branches,2,Splitter,TEMPCHWLOOP DEMAND SPLITTER,TEMPCHWLOOP DEMAND SIDE INLET BRANCH,BAS CHILLED CEILING TEMPCHWLOOP DEMAND SIDE BRANCH,TEMPCHWLOOP,Demand
     Plant Loop Connector Nodes,   2,Splitter,TEMPCHWLOOP DEMAND SPLITTER,TEMPCHWLOOP DEMAND SIDE INLET BRANCH PIPE OUTLET,BAS CHILLED CEILING CHW WATER INLET NODE,TEMPCHWLOOP,Demand
     Plant Loop Connector Branches,3,Splitter,TEMPCHWLOOP DEMAND SPLITTER,TEMPCHWLOOP DEMAND SIDE INLET BRANCH,OFF-VOLKER CHILLED CEILING TEMPCHWLOOP DEMAND SIDE BRANCH,TEMPCHWLOOP,Demand
     Plant Loop Connector Nodes,   3,Splitter,TEMPCHWLOOP DEMAND SPLITTER,TEMPCHWLOOP DEMAND SIDE INLET BRANCH PIPE OUTLET,OFF-VOLKER CHILLED CEILING CHW WATER INLET NODE,TEMPCHWLOOP,Demand
     Plant Loop Connector Branches,4,Splitter,TEMPCHWLOOP DEMAND SPLITTER,TEMPCHWLOOP DEMAND SIDE INLET BRANCH,OFF-ERICA CHILLED CEILING TEMPCHWLOOP DEMAND SIDE BRANCH,TEMPCHWLOOP,Demand
     Plant Loop Connector Nodes,   4,Splitter,TEMPCHWLOOP DEMAND SPLITTER,TEMPCHWLOOP DEMAND SIDE INLET BRANCH PIPE OUTLET,OFF-ERICA CHILLED CEILING CHW WATER INLET NODE,TEMPCHWLOOP,Demand
     Plant Loop Connector Branches,5,Splitter,TEMPCHWLOOP DEMAND SPLITTER,TEMPCHWLOOP DEMAND SIDE INLET BRANCH,LARGECONF1 COOLED BEAM TEMPCHWLOOP DEMAND SIDE BRANCH,TEMPCHWLOOP,Demand
     Plant Loop Connector Nodes,   5,Splitter,TEMPCHWLOOP DEMAND SPLITTER,TEMPCHWLOOP DEMAND SIDE INLET BRANCH PIPE OUTLET,LARGECONF1 COOLED BEAM CHW INLET NODE,TEMPCHWLOOP,Demand
     Plant Loop Connector Branches,6,Splitter,TEMPCHWLOOP DEMAND SPLITTER,TEMPCHWLOOP DEMAND SIDE INLET BRANCH,OFF-ANNIE COOLED BEAM TEMPCHWLOOP DEMAND SIDE BRANCH,TEMPCHWLOOP,Demand
     Plant Loop Connector Nodes,   6,Splitter,TEMPCHWLOOP DEMAND SPLITTER,TEMPCHWLOOP DEMAND SIDE INLET BRANCH PIPE OUTLET,OFF-ANNIE COOLED BEAM CHW INLET NODE,TEMPCHWLOOP,Demand
     Plant Loop Connector Branches,7,Splitter,TEMPCHWLOOP DEMAND SPLITTER,TEMPCHWLOOP DEMAND SIDE INLET BRANCH,LARGECONF0 COOLED BEAM TEMPCHWLOOP DEMAND SIDE BRANCH,TEMPCHWLOOP,Demand
     Plant Loop Connector Nodes,   7,Splitter,TEMPCHWLOOP DEMAND SPLITTER,TEMPCHWLOOP DEMAND SIDE INLET BRANCH PIPE OUTLET,LARGECONF0 COOLED BEAM CHW INLET NODE,TEMPCHWLOOP,Demand
     Plant Loop Connector Branches,8,Splitter,TEMPCHWLOOP DEMAND SPLITTER,TEMPCHWLOOP DEMAND SIDE INLET BRANCH,OFF-SUREKHA COOLED BEAM TEMPCHWLOOP DEMAND SIDE BRANCH,TEMPCHWLOOP,Demand
     Plant Loop Connector Nodes,   8,Splitter,TEMPCHWLOOP DEMAND SPLITTER,TEMPCHWLOOP DEMAND SIDE INLET BRANCH PIPE OUTLET,OFF-SUREKHA COOLED BEAM CHW INLET NODE,TEMPCHWLOOP,Demand
     Plant Loop Connector Branches,9,Splitter,TEMPCHWLOOP DEMAND SPLITTER,TEMPCHWLOOP DEMAND SIDE INLET BRANCH,OFF-ZHIANG FAN COIL UNIT COOLING COIL TEMPCHWLOOP DEMAND SIDE BRANCH,TEMPCHWLOOP,Demand
     Plant Loop Connector Nodes,   9,Splitter,TEMPCHWLOOP DEMAND SPLITTER,TEMPCHWLOOP DEMAND SIDE INLET BRANCH PIPE OUTLET,OFF-ZHIANG FAN COIL UNIT COOLING COIL WATER INLET NODE,TEMPCHWLOOP,Demand
     Plant Loop Connector Branches,10,Splitter,TEMPCHWLOOP DEMAND SPLITTER,TEMPCHWLOOP DEMAND SIDE INLET BRANCH,OFF-CHENLU FAN COIL UNIT COOLING COIL TEMPCHWLOOP DEMAND SIDE BRANCH,TEMPCHWLOOP,Demand
     Plant Loop Connector Nodes,   10,Splitter,TEMPCHWLOOP DEMAND SPLITTER,TEMPCHWLOOP DEMAND SIDE INLET BRANCH PIPE OUTLET,OFF-CHENLU FAN COIL UNIT COOLING COIL WATER INLET NODE,TEMPCHWLOOP,Demand
     Plant Loop Connector Branches,11,Splitter,TEMPCHWLOOP DEMAND SPLITTER,TEMPCHWLOOP DEMAND SIDE INLET BRANCH,KITCHEN CHILLED CEILING TEMPCHWLOOP DEMAND SIDE BRANCH,TEMPCHWLOOP,Demand
     Plant Loop Connector Nodes,   11,Splitter,TEMPCHWLOOP DEMAND SPLITTER,TEMPCHWLOOP DEMAND SIDE INLET BRANCH PIPE OUTLET,KITCHEN CHILLED CEILING CHW WATER INLET NODE,TEMPCHWLOOP,Demand
[...]
 Non-Parent Node Connection,SMALLCONF MULLION COLD WATER OUTLET NODE,ZONEHVAC:LOWTEMPERATURERADIANT:CONSTANTFLOW,SMALLCONF MULLION,Outlet,2
 Non-Parent Node Connection,OFF-NINA MULLION HOT WATER INLET NODE,ZONEHVAC:LOWTEMPERATURERADIANT:CONSTANTFLOW,OFF-NINA MULLION,Inlet,1
 Non-Parent Node Connection,OFF-NINA MULLION HOT WATER OUTLET NODE,ZONEHVAC:LOWTEMPERATURERADIANT:CONSTANTFLOW,OFF-NINA MULLION,Outlet,1
 Non-Parent Node Connection,OFF-NINA MULLION COLD WATER INLET NODE,ZONEHVAC:LOWTEMPERATURERADIANT:CONSTANTFLOW,OFF-NINA MULLION,Inlet,2
 Non-Parent Node Connection,OFF-NINA MULLION COLD WATER OUTLET NODE,ZONEHVAC:LOWTEMPERATURERADIANT:CONSTANTFLOW,OFF-NINA MULLION,Outlet,2
 Non-Parent Node Connection,OFF-ZHIANG MULLION HOT WATER INLET NODE,ZONEHVAC:LOWTEMPERATURERADIANT:CONSTANTFLOW,OFF-ZHIANG MULLION,Inlet,1
 Non-Parent Node Connection,OFF-ZHIANG MULLION HOT WATER OUTLET NODE,ZONEHVAC:LOWTEMPERATURERADIANT:CONSTANTFLOW,OFF-ZHIANG MULLION,Outlet,1
 Non-Parent Node Connection,OFF-ZHIANG MULLION COLD WATER INLET NODE,ZONEHVAC:LOWTEMPERATURERADIANT:CONSTANTFLOW,OFF-ZHIANG MULLION,Inlet,2
 Non-Parent Node Connection,OFF-ZHIANG MULLION COLD WATER OUTLET NODE,ZONEHVAC:LOWTEMPERATURERADIANT:CONSTANTFLOW,OFF-ZHIANG MULLION,Outlet,2
 Non-Parent Node Connection,OFF-CHENLU MULLION HOT WATER INLET NODE,ZONEHVAC:LOWTEMPERATURERADIANT:CONSTANTFLOW,OFF-CHENLU MULLION,Inlet,1
 Non-Parent Node Connection,OFF-CHENLU MULLION HOT WATER OUTLET NODE,ZONEHVAC:LOWTEMPERATURERADIANT:CONSTANTFLOW,OFF-CHENLU MULLION,Outlet,1
 Non-Parent Node Connection,OFF-CHENLU MULLION COLD WATER INLET NODE,ZONEHVAC:LOWTEMPERATURERADIANT:CONSTANTFLOW,OFF-CHENLU MULLION,Inlet,2
 Non-Parent Node Connection,OFF-CHENLU MULLION COLD WATER OUTLET NODE,ZONEHVAC:LOWTEMPERATURERADIANT:CONSTANTFLOW,OFF-CHENLU MULLION,Outlet,2
 Non-Parent Node Connection,BAS CHILLED CEILING HW WATER INLET NODE,ZONEHVAC:LOWTEMPERATURERADIANT:CONSTANTFLOW,BAS CHILLED CEILING,Inlet,1
 Non-Parent Node Connection,BAS CHILLED CEILING HW WATER OUTLET NODE,ZONEHVAC:LOWTEMPERATURERADIANT:CONSTANTFLOW,BAS CHILLED CEILING,Outlet,1
 Non-Parent Node Connection,BAS CHILLED CEILING CHW WATER INLET NODE,ZONEHVAC:LOWTEMPERATURERADIANT:CONSTANTFLOW,BAS CHILLED CEILING,Inlet,2
 Non-Parent Node Connection,BAS CHILLED CEILING CHW WATER OUTLET NODE,ZONEHVAC:LOWTEMPERATURERADIANT:CONSTANTFLOW,BAS CHILLED CEILING,Outlet,2
 Non-Parent Node Connection,OFF-VOLKER CHILLED CEILING HW WATER INLET NODE,ZONEHVAC:LOWTEMPERATURERADIANT:CONSTANTFLOW,OFF-VOLKER CHILLED CEILING,Inlet,1
 Non-Parent Node Connection,OFF-VOLKER CHILLED CEILING HW WATER OUTLET NODE,ZONEHVAC:LOWTEMPERATURERADIANT:CONSTANTFLOW,OFF-VOLKER CHILLED CEILING,Outlet,1
 Non-Parent Node Connection,OFF-VOLKER CHILLED CEILING CHW WATER INLET NODE,ZONEHVAC:LOWTEMPERATURERADIANT:CONSTANTFLOW,OFF-VOLKER CHILLED CEILING,Inlet,2
 Non-Parent Node Connection,OFF-VOLKER CHILLED CEILING CHW WATER OUTLET NODE,ZONEHVAC:LOWTEMPERATURERADIANT:CONSTANTFLOW,OFF-VOLKER CHILLED CEILING,Outlet,2
 Non-Parent Node Connection,OFF-ERICA CHILLED CEILING HW WATER INLET NODE,ZONEHVAC:LOWTEMPERATURERADIANT:CONSTANTFLOW,OFF-ERICA CHILLED CEILING,Inlet,1
 Non-Parent Node Connection,OFF-ERICA CHILLED CEILING HW WATER OUTLET NODE,ZONEHVAC:LOWTEMPERATURERADIANT:CONSTANTFLOW,OFF-ERICA CHILLED CEILING,Outlet,1
 Non-Parent Node Connection,OFF-ERICA CHILLED CEILING CHW WATER INLET NODE,ZONEHVAC:LOWTEMPERATURERADIANT:CONSTANTFLOW,OFF-ERICA CHILLED CEILING,Inlet,2
 Non-Parent Node Connection,OFF-ERICA CHILLED CEILING CHW WATER OUTLET NODE,ZONEHVAC:LOWTEMPERATURERADIANT:CONSTANTFLOW,OFF-ERICA CHILLED CEILING,Outlet,2
 Non-Parent Node Connection,KITCHEN CHILLED CEILING HW WATER INLET NODE,ZONEHVAC:LOWTEMPERATURERADIANT:CONSTANTFLOW,KITCHEN CHILLED CEILING,Inlet,1
 Non-Parent Node Connection,KITCHEN CHILLED CEILING HW WATER OUTLET NODE,ZONEHVAC:LOWTEMPERATURERADIANT:CONSTANTFLOW,KITCHEN CHILLED CEILING,Outlet,1
 Non-Parent Node Connection,KITCHEN CHILLED CEILING CHW WATER INLET NODE,ZONEHVAC:LOWTEMPERATURERADIANT:CONSTANTFLOW,KITCHEN CHILLED CEILING,Inlet,2
 Non-Parent Node Connection,KITCHEN CHILLED CEILING CHW WATER OUTLET NODE,ZONEHVAC:LOWTEMPERATURERADIANT:CONSTANTFLOW,KITCHEN CHILLED CEILING,Outlet,2
 Non-Parent Node Connection,DOAS ZONE SPLITTER OUTLET NODE YUJIE,AIRTERMINAL:SINGLEDUCT:UNCONTROLLED,OFF-YUJIE DIRECT AIR,Outlet,1
 Non-Parent Node Connection,DOAS ZONE SPLITTER OUTLET NODE BAPP,AIRTERMINAL:SINGLEDUCT:UNCONTROLLED,OFF-BAPP DIRECT AIR,Outlet,1
 Non-Parent Node Connection,DOAS ZONE SPLITTER OUTLET NODE WEILI,AIRTERMINAL:SINGLEDUCT:UNCONTROLLED,OFF-WEILI DIRECT AIR,Outlet,1
 Non-Parent Node Connection,DOAS ZONE SPLITTER OUTLET NODE JAMES,AIRTERMINAL:SINGLEDUCT:UNCONTROLLED,OFF-JAMES DIRECT AIR,Outlet,1
 Non-Parent Node Connection,DOAS ZONE SPLITTER OUTLET NODE VIVIAN,AIRTERMINAL:SINGLEDUCT:UNCONTROLLED,OFF-VIVIAN DIRECT AIR,Outlet,1
 Non-Parent Node Connection,DOAS ZONE SPLITTER OUTLET NODE OMER,AIRTERMINAL:SINGLEDUCT:UNCONTROLLED,OFF-OMER DIRECT AIR,Outlet,1
 Non-Parent Node Connection,DOAS ZONE SPLITTER OUTLET NODE SMALLCONF,AIRTERMINAL:SINGLEDUCT:UNCONTROLLED,SMALLCONF DIRECT AIR,Outlet,1
 Non-Parent Node Connection,DOAS ZONE SPLITTER OUTLET NODE NINA,AIRTERMINAL:SINGLEDUCT:UNCONTROLLED,OFF-NINA DIRECT AIR,Outlet,1
 Non-Parent Node Connection,DOAS AHU MIXED AIR OUTLET,OUTDOORAIR:MIXER,DOAS AHU  OUTDOOR AIR MIXER,Outlet,1
 Non-Parent Node Connection,DOAS AHU HEAT RECOVERY SUPPLY OUTLET,OUTDOORAIR:MIXER,DOAS AHU  OUTDOOR AIR MIXER,Inlet,1
 Non-Parent Node Connection,DOAS AHU RELIEF AIR OUTLET,OUTDOORAIR:MIXER,DOAS AHU  OUTDOOR AIR MIXER,ReliefAir,1
 Non-Parent Node Connection,DOAS AHU EXTRACT FAN AIR OUTLET NODE,OUTDOORAIR:MIXER,DOAS AHU  OUTDOOR AIR MIXER,Inlet,1
 Non-Parent Node Connection,OFF-ZHIANG FAN COIL UNIT MIXED AIR OUTLET,OUTDOORAIR:MIXER,OFF-ZHIANG FAN COIL UNIT OUTDOOR AIR MIXER,Outlet,1
 Non-Parent Node Connection,OFF-ZHIANG FAN COIL UNIT OUTDOOR AIR NODE NAME,OUTDOORAIR:MIXER,OFF-ZHIANG FAN COIL UNIT OUTDOOR AIR MIXER,Inlet,1
 Non-Parent Node Connection,OFF-ZHIANG FAN COIL UNIT AIR RELIEF NODE NAME,OUTDOORAIR:MIXER,OFF-ZHIANG FAN COIL UNIT OUTDOOR AIR MIXER,ReliefAir,1
 Non-Parent Node Connection,OFF-ZHIANG FAN COIL UNIT RETURN,OUTDOORAIR:MIXER,OFF-ZHIANG FAN COIL UNIT OUTDOOR AIR MIXER,Inlet,1
 Non-Parent Node Connection,OFF-CHENLU FAN COIL UNIT MIXED AIR OUTLET,OUTDOORAIR:MIXER,OFF-CHENLU FAN COIL UNIT OUTDOOR AIR MIXER,Outlet,1
 Non-Parent Node Connection,OFF-CHENLU FAN COIL UNIT OUTDOOR AIR NODE NAME,OUTDOORAIR:MIXER,OFF-CHENLU FAN COIL UNIT OUTDOOR AIR MIXER,Inlet,1
 Non-Parent Node Connection,OFF-CHENLU FAN COIL UNIT AIR RELIEF NODE NAME,OUTDOORAIR:MIXER,OFF-CHENLU FAN COIL UNIT OUTDOOR AIR MIXER,ReliefAir,1
 Non-Parent Node Connection,OFF-CHENLU FAN COIL UNIT RETURN,OUTDOORAIR:MIXER,OFF-CHENLU FAN COIL UNIT OUTDOOR AIR MIXER,Inlet,1
 Non-Parent Node Connection,OFF-ZHIANG FAN COIL UNIT HEATING COIL WATER INLET NODE,COIL:HEATING:WATER,OFF-ZHIANG FAN COIL UNIT HEATING COIL,Inlet,2
 Non-Parent Node Connection,OFF-ZHIANG FAN COIL UNIT HEATING COIL WATER OUTLET NODE,COIL:HEATING:WATER,OFF-ZHIANG FAN COIL UNIT HEATING COIL,Outlet,2
 Non-Parent Node Connection,OFF-ZHIANG FAN COIL UNIT COOLING COIL OUTLET,COIL:HEATING:WATER,OFF-ZHIANG FAN COIL UNIT HEATING COIL,Inlet,1
 Non-Parent Node Connection,OFF-ZHIANG FAN COIL UNIT SUPPLY INLET,COIL:HEATING:WATER,OFF-ZHIANG FAN COIL UNIT HEATING COIL,Outlet,1
 Non-Parent Node Connection,OFF-CHENLU FAN COIL UNIT HEATING COIL WATER INLET NODE,COIL:HEATING:WATER,OFF-CHENLU FAN COIL UNIT HEATING COIL,Inlet,2
 Non-Parent Node Connection,OFF-CHENLU FAN COIL UNIT HEATING COIL WATER OUTLET NODE,COIL:HEATING:WATER,OFF-CHENLU FAN COIL UNIT HEATING COIL,Outlet,2
 Non-Parent Node Connection,OFF-CHENLU FAN COIL UNIT COOLING COIL OUTLET,COIL:HEATING:WATER,OFF-CHENLU FAN COIL UNIT HEATING COIL,Inlet,1
 Non-Parent Node Connection,OFF-CHENLU FAN COIL UNIT SUPPLY INLET,COIL:HEATING:WATER,OFF-CHENLU FAN COIL UNIT HEATING COIL,Outlet,1
 Non-Parent Node Connection,OFF-ZHIANG FAN COIL UNIT COOLING COIL WATER INLET NODE,COIL:COOLING:WATER,OFF-ZHIANG FAN COIL UNIT COOLING COIL,Inlet,2
 Non-Parent Node Connection,OFF-ZHIANG FAN COIL UNIT COOLING COIL WATER OUTLET NODE,COIL:COOLING:WATER,OFF-ZHIANG FAN COIL UNIT COOLING COIL,Outlet,2
 Non-Parent Node Connection,OFF-ZHIANG FAN COIL UNIT SUPPLY FAN OUTLET,COIL:COOLING:WATER,OFF-ZHIANG FAN COIL UNIT COOLING COIL,Inlet,1
 Non-Parent Node Connection,OFF-ZHIANG FAN COIL UNIT COOLING COIL OUTLET,COIL:COOLING:WATER,OFF-ZHIANG FAN COIL UNIT COOLING COIL,Outlet,1
 Non-Parent Node Connection,OFF-CHENLU FAN COIL UNIT COOLING COIL WATER INLET NODE,COIL:COOLING:WATER,OFF-CHENLU FAN COIL UNIT COOLING COIL,Inlet,2
 Non-Parent Node Connection,OFF-CHENLU FAN COIL UNIT COOLING COIL WATER OUTLET NODE,COIL:COOLING:WATER,OFF-CHENLU FAN COIL UNIT COOLING COIL,Outlet,2
 Non-Parent Node Connection,OFF-CHENLU FAN COIL UNIT SUPPLY FAN OUTLET,COIL:COOLING:WATER,OFF-CHENLU FAN COIL UNIT COOLING COIL,Inlet,1
 Non-Parent Node Connection,OFF-CHENLU FAN COIL UNIT COOLING COIL OUTLET,COIL:COOLING:WATER,OFF-CHENLU FAN COIL UNIT COOLING COIL,Outlet,1
 Non-Parent Node Connection,DOAS SUPPLY SIDE INLET,FAN:CONSTANTVOLUME,DOAS AHU EXTRACT FAN,Inlet,1
 Non-Parent Node Connection,DOAS AHU EXTRACT FAN AIR OUTLET NODE,FAN:CONSTANTVOLUME,DOAS AHU EXTRACT FAN,Outlet,1
 Non-Parent Node Connection,DOAS AHU MIXED AIR OUTLET,FAN:CONSTANTVOLUME,DOAS AHU SUPPLY FAN,Inlet,1
 Non-Parent Node Connection,DOAS AHU SUPPLY FAN OUTLET,FAN:CONSTANTVOLUME,DOAS AHU SUPPLY FAN,Outlet,1
 Non-Parent Node Connection,DOAS DESICCANT REGEN WHEEL AIR OUTLET,FAN:CONSTANTVOLUME,DESICCANT REGEN FAN,Inlet,1
 Non-Parent Node Connection,DOAS DESICCANT REGEN AIR RELIEF OUTLET,FAN:CONSTANTVOLUME,DESICCANT REGEN FAN,Outlet,1
 Non-Parent Node Connection,OFF-ZHIANG FAN COIL UNIT MIXED AIR OUTLET,FAN:ONOFF,OFF-ZHIANG FAN COIL UNIT SUPPLY FAN,Inlet,1
 Non-Parent Node Connection,OFF-ZHIANG FAN COIL UNIT SUPPLY FAN OUTLET,FAN:ONOFF,OFF-ZHIANG FAN COIL UNIT SUPPLY FAN,Outlet,1
 Non-Parent Node Connection,OFF-CHENLU FAN COIL UNIT MIXED AIR OUTLET,FAN:ONOFF,OFF-CHENLU FAN COIL UNIT SUPPLY FAN,Inlet,1
 Non-Parent Node Connection,OFF-CHENLU FAN COIL UNIT SUPPLY FAN OUTLET,FAN:ONOFF,OFF-CHENLU FAN COIL UNIT SUPPLY FAN,Outlet,1
 Non-Parent Node Connection,DOAS ZONE SPLITTER OUTLET NODE LARGECONF1,AIRTERMINAL:SINGLEDUCT:CONSTANTVOLUME:COOLEDBEAM,LARGECONF1 COOLED BEAM,Inlet,1
 Non-Parent Node Connection,LARGECONF1 COOLED BEAM SUPPLY INLET,AIRTERMINAL:SINGLEDUCT:CONSTANTVOLUME:COOLEDBEAM,LARGECONF1 COOLED BEAM,Outlet,1
 Non-Parent Node Connection,LARGECONF1 COOLED BEAM CHW INLET NODE,AIRTERMINAL:SINGLEDUCT:CONSTANTVOLUME:COOLEDBEAM,LARGECONF1 COOLED BEAM,Inlet,2
 Non-Parent Node Connection,LARGECONF1 COOLED BEAM CHW OUTLET NODE,AIRTERMINAL:SINGLEDUCT:CONSTANTVOLUME:COOLEDBEAM,LARGECONF1 COOLED BEAM,Outlet,2
 Non-Parent Node Connection,DOAS ZONE SPLITTER OUTLET NODE ANNIE,AIRTERMINAL:SINGLEDUCT:CONSTANTVOLUME:COOLEDBEAM,OFF-ANNIE COOLED BEAM,Inlet,1
 Non-Parent Node Connection,OFF-ANNIE COOLED BEAM SUPPLY INLET,AIRTERMINAL:SINGLEDUCT:CONSTANTVOLUME:COOLEDBEAM,OFF-ANNIE COOLED BEAM,Outlet,1
 Non-Parent Node Connection,OFF-ANNIE COOLED BEAM CHW INLET NODE,AIRTERMINAL:SINGLEDUCT:CONSTANTVOLUME:COOLEDBEAM,OFF-ANNIE COOLED BEAM,Inlet,2
 Non-Parent Node Connection,OFF-ANNIE COOLED BEAM CHW OUTLET NODE,AIRTERMINAL:SINGLEDUCT:CONSTANTVOLUME:COOLEDBEAM,OFF-ANNIE COOLED BEAM,Outlet,2
 Non-Parent Node Connection,DOAS ZONE SPLITTER OUTLET NODE LARGECONF0,AIRTERMINAL:SINGLEDUCT:CONSTANTVOLUME:COOLEDBEAM,LARGECONF0 COOLED BEAM,Inlet,1
 Non-Parent Node Connection,LARGECONF0 COOLED BEAM SUPPLY INLET,AIRTERMINAL:SINGLEDUCT:CONSTANTVOLUME:COOLEDBEAM,LARGECONF0 COOLED BEAM,Outlet,1
 Non-Parent Node Connection,LARGECONF0 COOLED BEAM CHW INLET NODE,AIRTERMINAL:SINGLEDUCT:CONSTANTVOLUME:COOLEDBEAM,LARGECONF0 COOLED BEAM,Inlet,2
 Non-Parent Node Connection,LARGECONF0 COOLED BEAM CHW OUTLET NODE,AIRTERMINAL:SINGLEDUCT:CONSTANTVOLUME:COOLEDBEAM,LARGECONF0 COOLED BEAM,Outlet,2
 Non-Parent Node Connection,DOAS ZONE SPLITTER OUTLET NODE SUREKHA,AIRTERMINAL:SINGLEDUCT:CONSTANTVOLUME:COOLEDBEAM,OFF-SUREKHA COOLED BEAM,Inlet,1
 Non-Parent Node Connection,OFF-SUREKHA COOLED BEAM SUPPLY INLET,AIRTERMINAL:SINGLEDUCT:CONSTANTVOLUME:COOLEDBEAM,OFF-SUREKHA COOLED BEAM,Outlet,1
 Non-Parent Node Connection,OFF-SUREKHA COOLED BEAM CHW INLET NODE,AIRTERMINAL:SINGLEDUCT:CONSTANTVOLUME:COOLEDBEAM,OFF-SUREKHA COOLED BEAM,Inlet,2
 Non-Parent Node Connection,OFF-SUREKHA COOLED BEAM CHW OUTLET NODE,AIRTERMINAL:SINGLEDUCT:CONSTANTVOLUME:COOLEDBEAM,OFF-SUREKHA COOLED BEAM,Outlet,2
 Non-Parent Node Connection,DOAS DEMAND SIDE OUTLET,AIRLOOPHVAC:ZONEMIXER,DOAS ZONE MIXER,Outlet,1
 Non-Parent Node Connection,DOAS ZONE MIXER INLET NODE LARGECONF1,AIRLOOPHVAC:ZONEMIXER,DOAS ZONE MIXER,Inlet,1
 Non-Parent Node Connection,DOAS ZONE MIXER INLET NODE ANNIE,AIRLOOPHVAC:ZONEMIXER,DOAS ZONE MIXER,Inlet,1
 Non-Parent Node Connection,DOAS ZONE MIXER INLET NODE LARGECONF0,AIRLOOPHVAC:ZONEMIXER,DOAS ZONE MIXER,Inlet,1
 Non-Parent Node Connection,DOAS ZONE MIXER INLET NODE SUREKHA,AIRLOOPHVAC:ZONEMIXER,DOAS ZONE MIXER,Inlet,1
 Non-Parent Node Connection,DOAS ZONE MIXER INLET NODE YUJIE,AIRLOOPHVAC:ZONEMIXER,DOAS ZONE MIXER,Inlet,1
 Non-Parent Node Connection,DOAS ZONE MIXER INLET NODE BAPP,AIRLOOPHVAC:ZONEMIXER,DOAS ZONE MIXER,Inlet,1
 Non-Parent Node Connection,DOAS ZONE MIXER INLET NODE WEILI,AIRLOOPHVAC:ZONEMIXER,DOAS ZONE MIXER,Inlet,1
 Non-Parent Node Connection,DOAS ZONE MIXER INLET NODE JAMES,AIRLOOPHVAC:ZONEMIXER,DOAS ZONE MIXER,Inlet,1
 Non-Parent Node Connection,DOAS ZONE MIXER INLET NODE VIVIAN,AIRLOOPHVAC:ZONEMIXER,DOAS ZONE MIXER,Inlet,1
 Non-Parent Node Connection,DOAS ZONE MIXER INLET NODE OMER,AIRLOOPHVAC:ZONEMIXER,DOAS ZONE MIXER,Inlet,1
 Non-Parent Node Connection,DOAS ZONE MIXER INLET NODE SMALLCONF,AIRLOOPHVAC:ZONEMIXER,DOAS ZONE MIXER,Inlet,1
 Non-Parent Node Connection,DOAS ZONE MIXER INLET NODE NINA,AIRLOOPHVAC:ZONEMIXER,DOAS ZONE MIXER,Inlet,1
 Non-Parent Node Connection,DOAS AHU MIXED AIR OUTLET,CONTROLLER:OUTDOORAIR,DOAS AHU  OUTDOOR AIR CONTROLLER,Sensor,1
 Non-Parent Node Connection,DOAS AHU OUTDOOR AIR INLET,CONTROLLER:OUTDOORAIR,DOAS AHU  OUTDOOR AIR CONTROLLER,Actuator,1
 Non-Parent Node Connection,DOAS AHU RELIEF AIR OUTLET,CONTROLLER:OUTDOORAIR,DOAS AHU  OUTDOOR AIR CONTROLLER,Actuator,1
 Non-Parent Node Connection,DOAS AHU EXTRACT FAN AIR OUTLET NODE,CONTROLLER:OUTDOORAIR,DOAS AHU  OUTDOOR AIR CONTROLLER,Sensor,1
 Non-Parent Node Connection,DOAS AHU OUTDOOR AIR INLET,HEATEXCHANGER:AIRTOAIR:SENSIBLEANDLATENT,DOAS AHU  HEAT RECOVERY DEVICE,Inlet,1
 Non-Parent Node Connection,DOAS AHU HEAT RECOVERY SUPPLY OUTLET,HEATEXCHANGER:AIRTOAIR:SENSIBLEANDLATENT,DOAS AHU  HEAT RECOVERY DEVICE,Outlet,1
 Non-Parent Node Connection,DOAS AHU RELIEF AIR OUTLET,HEATEXCHANGER:AIRTOAIR:SENSIBLEANDLATENT,DOAS AHU  HEAT RECOVERY DEVICE,Inlet,2
 Non-Parent Node Connection,DOAS AHU HEAT RECOVERY RELIEF OUTLET,HEATEXCHANGER:AIRTOAIR:SENSIBLEANDLATENT,DOAS AHU  HEAT RECOVERY DEVICE,Outlet,2
 Non-Parent Node Connection,DOAS DESICCANT REGEN BURNER AIR OUTLET,HEATEXCHANGER:DESICCANT:BALANCEDFLOW,DESICCANT HEAT EXCHANGER 1,Inlet,1
 Non-Parent Node Connection,DOAS DESICCANT REGEN WHEEL AIR OUTLET,HEATEXCHANGER:DESICCANT:BALANCEDFLOW,DESICCANT HEAT EXCHANGER 1,Outlet,1
 Non-Parent Node Connection,DOAS AHU UNITARY COOLING COIL DX COOLING COIL AIR OUTLET NODE,HEATEXCHANGER:DESICCANT:BALANCEDFLOW,DESICCANT HEAT EXCHANGER 1,Inlet,2
 Non-Parent Node Connection,DOAS SUPPLY SIDE OUTLET 1,HEATEXCHANGER:DESICCANT:BALANCEDFLOW,DESICCANT HEAT EXCHANGER 1,Outlet,2
 Non-Parent Node Connection,DOAS AHU SUPPLY FAN OUTLET,COIL:COOLING:DX:SINGLESPEED,DOAS AHU UNITARY COOLING COIL DX COOLING COIL,Inlet,1
 Non-Parent Node Connection,DOAS AHU UNITARY COOLING COIL DX COOLING COIL AIR OUTLET NODE,COIL:COOLING:DX:SINGLESPEED,DOAS AHU UNITARY COOLING COIL DX COOLING COIL,Outlet,1
 Non-Parent Node Connection,DOAS SUPPLY SIDE OUTLET 1,DEHUMIDIFIER:DESICCANT:SYSTEM,DOAS AHU DESICCANT DEHUMIDIFIER,Sensor,1
 Non-Parent Node Connection,DOAS DESICCANT REGEN OUTDOOR AIR INLET,COIL:HEATING:GAS,DOAS DESICCANT REGEN BURNER COIL,Inlet,1
 Non-Parent Node Connection,DOAS DESICCANT REGEN BURNER AIR OUTLET,COIL:HEATING:GAS,DOAS DESICCANT REGEN BURNER COIL,Outlet,1
 Non-Parent Node Connection,TEMPHWLOOP DEMAND SIDE INLET,PIPE:ADIABATIC,TEMPHWLOOP DEMAND SIDE INLET BRANCH PIPE,Inlet,1
 Non-Parent Node Connection,TEMPHWLOOP DEMAND SIDE INLET BRANCH PIPE OUTLET,PIPE:ADIABATIC,TEMPHWLOOP DEMAND SIDE INLET BRANCH PIPE,Outlet,1
 Non-Parent Node Connection,TEMPHWLOOP DEMAND SIDE BYPASS PIPE INLET NODE,PIPE:ADIABATIC,TEMPHWLOOP DEMAND SIDE BYPASS PIPE,Inlet,1
 Non-Parent Node Connection,TEMPHWLOOP DEMAND SIDE BYPASS PIPE OUTLET NODE,PIPE:ADIABATIC,TEMPHWLOOP DEMAND SIDE BYPASS PIPE,Outlet,1
 Non-Parent Node Connection,TEMPHWLOOP DEMAND SIDE OUTLET BRANCH PIPE INLET,PIPE:ADIABATIC,TEMPHWLOOP DEMAND SIDE OUTLET BRANCH PIPE,Inlet,1
 Non-Parent Node Connection,TEMPHWLOOP DEMAND SIDE OUTLET,PIPE:ADIABATIC,TEMPHWLOOP DEMAND SIDE OUTLET BRANCH PIPE,Outlet,1
 Non-Parent Node Connection,TEMPHWLOOP SUPPLY SIDE BYPASS PIPE INLET NODE,PIPE:ADIABATIC,TEMPHWLOOP SUPPLY SIDE BYPASS PIPE,Inlet,1
 Non-Parent Node Connection,TEMPHWLOOP SUPPLY SIDE BYPASS PIPE OUTLET NODE,PIPE:ADIABATIC,TEMPHWLOOP SUPPLY SIDE BYPASS PIPE,Outlet,1
 Non-Parent Node Connection,TEMPHWLOOP SUPPLY SIDE OUTLET BRANCH PIPE INLET,PIPE:ADIABATIC,TEMPHWLOOP SUPPLY SIDE OUTLET BRANCH PIPE,Inlet,1
 Non-Parent Node Connection,TEMPHWLOOP SUPPLY SIDE OUTLET,PIPE:ADIABATIC,TEMPHWLOOP SUPPLY SIDE OUTLET BRANCH PIPE,Outlet,1
 Non-Parent Node Connection,TEMPCHWLOOP DEMAND SIDE INLET,PIPE:ADIABATIC,TEMPCHWLOOP DEMAND SIDE INLET BRANCH PIPE,Inlet,1
 Non-Parent Node Connection,TEMPCHWLOOP DEMAND SIDE INLET BRANCH PIPE OUTLET,PIPE:ADIABATIC,TEMPCHWLOOP DEMAND SIDE INLET BRANCH PIPE,Outlet,1
 Non-Parent Node Connection,TEMPCHWLOOP DEMAND SIDE BYPASS PIPE INLET NODE,PIPE:ADIABATIC,TEMPCHWLOOP DEMAND SIDE BYPASS PIPE,Inlet,1
 Non-Parent Node Connection,TEMPCHWLOOP DEMAND SIDE BYPASS PIPE OUTLET NODE,PIPE:ADIABATIC,TEMPCHWLOOP DEMAND SIDE BYPASS PIPE,Outlet,1
 Non-Parent Node Connection,TEMPCHWLOOP DEMAND SIDE OUTLET BRANCH PIPE INLET,PIPE:ADIABATIC,TEMPCHWLOOP DEMAND SIDE OUTLET BRANCH PIPE,Inlet,1
 Non-Parent Node Connection,TEMPCHWLOOP DEMAND SIDE OUTLET,PIPE:ADIABATIC,TEMPCHWLOOP DEMAND SIDE OUTLET BRANCH PIPE,Outlet,1
 Non-Parent Node Connection,TEMPCHWLOOP SUPPLY SIDE BYPASS PIPE INLET NODE,PIPE:ADIABATIC,TEMPCHWLOOP SUPPLY SIDE BYPASS PIPE,Inlet,1
 Non-Parent Node Connection,TEMPCHWLOOP SUPPLY SIDE BYPASS PIPE OUTLET NODE,PIPE:ADIABATIC,TEMPCHWLOOP SUPPLY SIDE BYPASS PIPE,Outlet,1
 Non-Parent Node Connection,TEMPCHWLOOP SUPPLY SIDE OUTLET BRANCH PIPE INLET,PIPE:ADIABATIC,TEMPCHWLOOP SUPPLY SIDE OUTLET BRANCH PIPE,Inlet,1
 Non-Parent Node Connection,TEMPCHWLOOP SUPPLY SIDE OUTLET,PIPE:ADIABATIC,TEMPCHWLOOP SUPPLY SIDE OUTLET BRANCH PIPE,Outlet,1
 Non-Parent Node Connection,CMU DISTRICTHEATING WATER INLET NODE,DISTRICTHEATING,CMU DISTRICTHEATING,Inlet,1
 Non-Parent Node Connection,CMU DISTRICTHEATING WATER OUTLET NODE,DISTRICTHEATING,CMU DISTRICTHEATING,Outlet,1
 Non-Parent Node Connection,CMU DISTRICTCOOLING CHW INLET NODE,DISTRICTCOOLING,CMU DISTRICTCOOLING,Inlet,1
 Non-Parent Node Connection,CMU DISTRICTCOOLING CHW OUTLET NODE,DISTRICTCOOLING,CMU DISTRICTCOOLING,Outlet,1
 Non-Parent Node Connection,TEMPHWLOOP SUPPLY SIDE INLET,PUMP:CONSTANTSPEED,TEMPHWLOOP SUPPLY PUMP,Inlet,1
 Non-Parent Node Connection,TEMPHWLOOP SUPPLY PUMP WATER OUTLET NODE,PUMP:CONSTANTSPEED,TEMPHWLOOP SUPPLY PUMP,Outlet,1
 Non-Parent Node Connection,TEMPCHWLOOP SUPPLY SIDE INLET,PUMP:CONSTANTSPEED,TEMPCHWLOOP SUPPLY PUMP,Inlet,1
 Non-Parent Node Connection,TEMPCHWLOOP SUPPLY PUMP WATER OUTLET NODE,PUMP:CONSTANTSPEED,TEMPCHWLOOP SUPPLY PUMP,Outlet,1
