Program Version,EnergyPlus, Version 8.3.0-6d97d074ea, YMD=2017.09.20 23:03
! <Version>, Version ID
 Version, 8.3.0.001
! <Timesteps per Hour>, #TimeSteps, Minutes per TimeStep {minutes}
 Timesteps per Hour,  1, 60
! <System Convergence Limits>, Minimum System TimeStep {minutes}, Max HVAC Iterations, Minimum Plant Iterations, Maximum Plant Iterations
 System Convergence Limits, 1, 25, 2, 8
! <Simulation Control>, Do Zone Sizing, Do System Sizing, Do Plant Sizing, Do Design Days, Do Weather Simulation, Do HVAC Sizing Simulation
 Simulation Control, No, No, No, No, Yes, No
! <Output Reporting Tolerances>, Tolerance for Time Heating Setpoint Not Met, Tolerance for Zone Cooling Setpoint Not Met Time
 Output Reporting Tolerances, 0.550, 0.550, 
! <Site:GroundTemperature:BuildingSurface>, Months From Jan to Dec {C}
 Site:GroundTemperature:BuildingSurface,  18.00,  18.00,  18.00,  18.00,  18.00,  18.00,  18.00,  18.00,  18.00,  18.00,  18.00,  18.00
! <Site:GroundTemperature:FCfactorMethod>, Months From Jan to Dec {C}
 Site:GroundTemperature:FCfactorMethod,   2.10,   1.21,   2.79,   5.27,  11.76,  16.77,  20.14,  21.17,  19.42,  15.53,  10.34,   5.52
! <Site:GroundTemperature:Shallow>, Months From Jan to Dec {C}
 Site:GroundTemperature:Shallow,  14.00,  14.00,  14.00,  14.00,  14.00,  14.00,  14.00,  14.00,  14.00,  14.00,  14.00,  14.00
! <Site:GroundTemperature:Deep>, Months From Jan to Dec {C}
 Site:GroundTemperature:Deep,  14.00,  14.00,  14.00,  14.00,  14.00,  14.00,  14.00,  14.00,  14.00,  14.00,  14.00,  14.00
! <Site:GroundReflectance>, Months From Jan to Dec {dimensionless}
 Site:GroundReflectance,  0.20,  0.20,  0.20,  0.20,  0.20,  0.20,  0.20,  0.20,  0.20,  0.20,  0.20,  0.20
! <Site:GroundReflectance:SnowModifier>, Normal, Daylighting {dimensionless}
 Site:GroundReflectance:SnowModifier,   2.000,   2.000
! <Site:GroundReflectance:Snow>, Months From Jan to Dec {dimensionless}
 Site:GroundReflectance:Snow,  0.40,  0.40,  0.40,  0.40,  0.40,  0.40,  0.40,  0.40,  0.40,  0.40,  0.40,  0.40
! <Site:GroundReflectance:Snow:Daylighting>, Months From Jan to Dec {dimensionless}
 Site:GroundReflectance:Snow:Daylighting,  0.40,  0.40,  0.40,  0.40,  0.40,  0.40,  0.40,  0.40,  0.40,  0.40,  0.40,  0.40
! <Environment:Weather Station>,Wind Sensor Height Above Ground {m},Wind Speed Profile Exponent {},Wind Speed Profile Boundary Layer Thickness {m},Air Temperature Sensor Height Above Ground {m},Wind Speed Modifier Coefficient [Internal],Temperature Modifier Coefficient [Internal]
Environment:Weather Station,10.000,0.140,270.000,1.500,1.586,9.750E-003
! <Site:Location>, Location Name, Latitude {N+/S- Deg}, Longitude {E+/W- Deg},  Time Zone Number {GMT+/-}, Elevation {m},  Standard Pressure at Elevation {Pa}, Standard RhoAir at Elevation
Site:Location,Pittsburgh Allegheny Co Ap PA USA TMY3 WMO#=725205,40.35,-79.92,-5.00,380.00,96842,1.1510
! <Building Information>, Building Name,North Axis {deg},Terrain,  Loads Convergence Tolerance Value,Temperature Convergence Tolerance Value,  Solar Distribution,Maximum Number of Warmup Days,Minimum Number of Warmup Days
 Building Information,Building,15.000,Suburbs,4.00000E-002,0.40000,FullExterior,25,6
! <Inside Convection Algorithm>, Algorithm {Simple | TARP | CeilingDiffuser | AdaptiveConvectionAlgorithm}
Inside Convection Algorithm,TARP
! <Outside Convection Algorithm>, Algorithm {SimpleCombined | TARP | MoWitt | DOE-2 | AdaptiveConvectionAlgorithm}
Outside Convection Algorithm,DOE-2
! <Sky Radiance Distribution>, Value {Anisotropic}
Sky Radiance Distribution,Anisotropic
! <Zone Air Solution Algorithm>, Value {ThirdOrderBackwardDifference | AnalyticalSolution | EulerMethod}
 Zone Air Solution Algorithm, ThirdOrderBackwardDifference
! <Zone Air Contaminant Balance Simulation>, Simulation {Yes/No}, Carbon Dioxide Concentration
 Zone Air Carbon Dioxide Balance Simulation, Yes,YES
! <Zone Air Contaminant Balance Simulation>, Simulation {Yes/No}, Generic Contaminant Concentration
 Zone Air Generic Contaminant Balance Simulation, No,N/A
! <Zone Air Mass Flow Balance Simulation>, Simulation {Yes/No}
 Zone Air Mass Flow Balance Simulation, No
! <Environment:Site Atmospheric Variation>,Wind Speed Profile Exponent {},Wind Speed Profile Boundary Layer Thickness {m},Air Temperature Gradient Coefficient {K/m}
Environment:Site Atmospheric Variation,0.220,370.000,6.500000E-003
! <SurfaceGeometry>,Starting Corner,Vertex Input Direction,Coordinate System,Daylight Reference Point Coordinate System,Rectangular (Simple) Surface Coordinate System
 Surface Geometry,LowerLeftCorner,Counterclockwise,RelativeCoordinateSystem,RelativeCoordinateSystem,RelativeToZoneOrigin
! <Surface Heat Transfer Algorithm>, Value {CTF - ConductionTransferFunction | EMPD - MoisturePenetrationDepthConductionTransferFunction | CondFD - ConductionFiniteDifference | HAMT - CombinedHeatAndMoistureFiniteElement} - Description,Inside Surface Max Temperature Limit{C}, Surface Convection Coefficient Lower Limit {W/m2-K}, Surface Convection Coefficient Upper Limit {W/m2-K}
Surface Heat Transfer Algorithm, CTF - ConductionTransferFunction,2000,0.10,1000.0
! <Shading Summary>, Number of Fixed Detached Shades, Number of Building Detached Shades, Number of Attached Shades
 Shading Summary,0,132,0
! <Zone Summary>, Number of Zones, Number of Zone Surfaces, Number of SubSurfaces
 Zone Summary,31,796,303
! <Zone Information>,Zone Name,North Axis {deg},Origin X-Coordinate {m},Origin Y-Coordinate {m},Origin Z-Coordinate {m},Centroid X-Coordinate {m},Centroid Y-Coordinate {m},Centroid Z-Coordinate {m},Type,Zone Multiplier,Zone List Multiplier,Minimum X {m},Maximum X {m},Minimum Y {m},Maximum Y {m},Minimum Z {m},Maximum Z {m},Ceiling Height {m},Volume {m3},Zone Inside Convection Algorithm {Simple-Detailed-CeilingDiffuser-TrombeWall},Zone Outside Convection Algorithm {Simple-Detailed-Tarp-MoWitt-DOE-2-BLAST}, Floor Area {m2},Exterior Gross Wall Area {m2},Exterior Net Wall Area {m2},Exterior Window Area {m2}, Number of Surfaces, Number of SubSurfaces, Number of Shading SubSurfaces,  Part of Total Building Area
 Zone Information, UNDERFLOOR_VOID_SPACE,0.0,0.00,0.00,0.00,6.89,19.14,0.56,1,1,1,-6.67,21.93,-5.53,39.73,0.00,1.12,1.12,685.02,TARP,DOE-2,611.63,135.55,96.64,0.00,31,5,0,No
 Zone Information, ROOFS1,0.0,0.00,0.00,0.00,0.28,2.67,4.46,1,1,1,-5.45,6.06,-0.99,6.40,4.12,5.42,0.71,32.33,TARP,DOE-2,20.98,0.00,0.00,0.00,8,2,0,No
 Zone Information, ROOFS2,0.0,0.00,0.00,0.00,1.53,7.30,4.46,1,1,1,-4.21,7.30,3.64,11.03,4.12,5.42,0.71,32.33,TARP,DOE-2,0.15,0.00,0.00,0.00,8,3,0,No
 Zone Information, ROOFS3,0.0,0.00,0.00,0.00,2.77,11.94,4.46,1,1,1,-2.97,8.54,8.28,15.67,4.12,5.42,0.71,32.33,TARP,DOE-2,0.15,0.00,0.00,0.00,8,3,0,No
 Zone Information, ROOFS0,0.0,0.00,0.00,0.00,-0.94,-1.92,4.46,1,1,1,-6.67,4.82,-5.53,1.76,4.12,5.42,0.71,31.75,TARP,DOE-2,0.15,0.00,0.00,0.00,8,3,0,No
 Zone Information, ROOFS4,0.0,0.00,0.00,0.00,4.03,16.63,4.45,1,1,1,-1.73,9.81,12.92,20.41,4.12,5.42,0.71,32.98,TARP,DOE-2,0.15,0.00,0.00,0.00,8,3,0,No
 Zone Information, ROOFN0,0.0,0.00,0.00,0.00,8.78,20.49,4.48,1,1,1,-0.45,18.05,15.80,25.24,4.12,5.42,0.74,60.94,TARP,DOE-2,5.19,0.00,0.00,20.57,8,13,0,No
 Zone Information, ROOFN3,0.0,0.00,0.00,0.00,12.66,34.98,4.48,1,1,1,3.43,21.93,30.29,39.73,4.12,5.42,0.72,61.04,TARP,DOE-2,0.15,0.00,0.00,0.00,7,2,0,No
 Zone Information, ROOFN1,0.0,0.00,0.00,0.00,10.07,25.32,4.48,1,1,1,0.84,19.35,20.63,30.07,4.12,5.42,0.73,60.94,TARP,DOE-2,15.19,0.00,0.00,12.34,10,10,0,No
 Zone Information, ROOFN2,0.0,0.00,0.00,0.00,11.37,30.15,4.48,1,1,1,2.13,20.64,25.46,34.90,4.12,5.42,0.73,60.94,TARP,DOE-2,0.17,0.00,0.00,12.34,7,8,0,No
 Zone Information, CORRINOR,0.0,0.00,0.00,0.00,5.97,23.86,2.62,1,1,1,3.75,8.20,18.79,28.94,1.12,4.12,3.00,106.11,TARP,DOE-2,19.30,0.00,0.00,0.00,9,8,0,Yes
 Zone Information, KITCHEN,0.0,0.00,0.00,0.00,11.02,25.10,2.62,1,1,1,6.91,15.14,21.75,28.44,1.12,4.12,3.00,383.92,TARP,DOE-2,35.95,0.00,0.00,0.00,7,5,0,Yes
 Zone Information, BAS,0.0,0.00,0.00,0.00,16.60,23.61,2.62,1,1,1,13.85,19.35,20.63,26.58,1.12,4.12,3.00,99.21,TARP,DOE-2,21.75,15.00,5.93,7.49,15,11,0,Yes
 Zone Information, STAIRNCOM,0.0,0.00,0.00,0.00,11.83,19.71,2.62,1,1,1,5.61,18.05,15.80,23.61,1.12,4.12,3.00,173.10,TARP,DOE-2,57.70,36.57,16.21,16.91,29,19,0,Yes
 Zone Information, CORRISOU,0.0,0.00,0.00,0.00,1.57,7.44,2.62,1,1,1,-2.47,5.61,-4.41,19.28,1.12,4.12,3.00,139.02,TARP,DOE-2,46.34,0.00,0.00,0.00,18,16,0,Yes
 Zone Information, OFF-YUJIE,0.0,0.00,0.00,0.00,7.08,15.85,2.62,1,1,1,4.34,9.81,12.92,18.79,1.12,4.12,3.00,64.08,TARP,DOE-2,21.36,14.73,5.80,7.51,15,10,0,Yes
 Zone Information, OFF-BAPP,0.0,0.00,0.00,0.00,5.82,11.16,2.62,1,1,1,3.10,8.54,8.28,14.04,1.12,4.12,3.00,148.66,TARP,DOE-2,20.88,14.40,5.66,7.19,15,11,0,Yes
 Zone Information, OFF-WEILI,0.0,0.00,0.00,0.00,4.58,6.52,2.62,1,1,1,1.86,7.30,3.64,9.41,1.12,4.12,3.00,62.64,TARP,DOE-2,20.88,14.40,5.66,7.19,15,11,0,Yes
 Zone Information, OFF-ZHIANG,0.0,0.00,0.00,0.00,3.34,1.89,2.62,1,1,1,0.61,6.06,-0.99,4.77,1.12,4.12,3.00,65.14,TARP,DOE-2,20.88,14.40,5.66,7.19,15,11,0,Yes
 Zone Information, OFF-NINA,0.0,0.00,0.00,0.00,2.11,-2.70,2.62,1,1,1,-0.60,4.82,-5.53,0.13,1.12,4.12,3.00,58.83,TARP,DOE-2,20.45,26.10,10.07,13.33,24,15,0,Yes
 Zone Information, OFF-VOLKER,0.0,0.00,0.00,0.00,3.59,27.09,2.62,1,1,1,0.84,6.34,24.11,30.07,1.12,4.12,3.00,35.47,TARP,DOE-2,21.75,15.00,6.15,7.29,15,11,0,Yes
 Zone Information, OFF-ERICA,0.0,0.00,0.00,0.00,2.29,22.26,2.62,1,1,1,-0.45,5.04,19.28,25.24,1.12,4.12,3.00,35.47,TARP,DOE-2,21.75,15.00,6.15,7.29,15,11,0,Yes
 Zone Information, OFF-JAMES,0.0,0.00,0.00,0.00,1.01,17.48,2.62,1,1,1,-1.73,3.75,14.54,20.41,1.12,4.12,3.00,34.83,TARP,DOE-2,21.36,14.73,6.03,7.16,15,11,0,Yes
 Zone Information, OFF-VIVIAN,0.0,0.00,0.00,0.00,-0.25,12.79,2.62,1,1,1,-2.97,2.48,9.91,15.67,1.12,4.12,3.00,34.05,TARP,DOE-2,20.88,14.40,5.88,6.99,15,11,0,Yes
 Zone Information, OFF-CHENLU,0.0,0.00,0.00,0.00,-1.49,8.15,2.62,1,1,1,-4.21,1.23,5.27,11.03,1.12,4.12,3.00,34.05,TARP,DOE-2,20.88,14.40,5.88,6.99,15,11,0,Yes
 Zone Information, OFF-OMER,0.0,0.00,0.00,0.00,-2.73,3.51,2.62,1,1,1,-5.45,-8.48E-003,0.63,6.40,1.12,4.12,3.00,34.05,TARP,DOE-2,20.88,14.40,5.88,6.99,15,10,0,Yes
 Zone Information, SMALLCONF,0.0,0.00,0.00,0.00,-3.96,-1.07,2.62,1,1,1,-6.67,-1.25,-3.91,1.76,1.12,4.12,3.00,71.73,TARP,DOE-2,20.45,26.10,11.28,12.34,24,14,0,Yes
 Zone Information, LARGECONF1,0.0,0.00,0.00,0.00,10.58,35.57,2.62,1,1,1,3.43,17.73,31.41,39.73,1.12,4.12,3.00,124.55,TARP,DOE-2,67.30,55.40,24.22,27.20,38,17,0,Yes
 Zone Information, OFF-ANNIE,0.0,0.00,0.00,0.00,19.19,33.27,2.62,1,1,1,16.44,21.94,30.29,36.25,1.12,4.12,3.00,142.77,TARP,DOE-2,21.73,28.07,12.14,13.34,25,14,0,Yes
 Zone Information, LARGECONF0,0.0,0.00,0.00,0.00,9.29,30.74,2.62,1,1,1,2.13,16.44,26.58,34.90,1.12,4.12,3.00,382.16,TARP,DOE-2,67.40,15.01,6.15,7.30,17,13,0,Yes
 Zone Information, OFF-SUREKHA,0.0,0.00,0.00,0.00,17.89,28.44,2.62,1,1,1,15.14,20.64,25.46,31.42,1.12,4.12,3.00,400.28,TARP,DOE-2,21.77,15.01,5.94,7.49,15,11,0,Yes
! <Zone Internal Gains/Equipment Information - Nominal>,Zone Name, Floor Area {m2},# Occupants,Area per Occupant {m2/person},Occupant per Area {person/m2},Interior Lighting {W/m2},Electric Load {W/m2},Gas Load {W/m2},Other Load {W/m2},Hot Water Eq {W/m2},Steam Equipment {W/m2},Sum Loads per Area {W/m2},Outdoor Controlled Baseboard Heat
 Zone Internal Gains, UNDERFLOOR_VOID_SPACE,611.63,0.0,N/A,0.000,0.000,0.000,0.000,0.000,0.000,0.000,0.000,No
 Zone Internal Gains, ROOFS1,20.98,0.0,N/A,0.000,0.000,0.000,0.000,0.000,0.000,0.000,0.000,No
 Zone Internal Gains, ROOFS2,0.15,0.0,N/A,0.000,0.000,0.000,0.000,0.000,0.000,0.000,0.000,No
 Zone Internal Gains, ROOFS3,0.15,0.0,N/A,0.000,0.000,0.000,0.000,0.000,0.000,0.000,0.000,No
 Zone Internal Gains, ROOFS0,0.15,0.0,N/A,0.000,0.000,0.000,0.000,0.000,0.000,0.000,0.000,No
 Zone Internal Gains, ROOFS4,0.15,0.0,N/A,0.000,0.000,0.000,0.000,0.000,0.000,0.000,0.000,No
 Zone Internal Gains, ROOFN0,5.19,0.0,N/A,0.000,0.000,0.000,0.000,0.000,0.000,0.000,0.000,No
 Zone Internal Gains, ROOFN3,0.15,0.0,N/A,0.000,0.000,0.000,0.000,0.000,0.000,0.000,0.000,No
 Zone Internal Gains, ROOFN1,15.19,0.0,N/A,0.000,0.000,0.000,0.000,0.000,0.000,0.000,0.000,No
 Zone Internal Gains, ROOFN2,0.17,0.0,N/A,0.000,0.000,0.000,0.000,0.000,0.000,0.000,0.000,No
 Zone Internal Gains, CORRINOR,19.30,1.9,10.000,0.100,18.000,0.000,0.000,0.000,0.000,0.000,18.000,No
 Zone Internal Gains, KITCHEN,35.95,2.9,12.500,8.000E-002,18.000,7.500,0.000,0.000,0.000,0.000,25.500,No
 Zone Internal Gains, BAS,21.75,0.0,N/A,0.000,18.000,25.000,0.000,0.000,0.000,0.000,43.000,No
 Zone Internal Gains, STAIRNCOM,57.70,1.7,33.333,3.000E-002,18.000,0.000,0.000,0.000,0.000,0.000,18.000,No
 Zone Internal Gains, CORRISOU,46.34,4.6,10.000,1.000E-001,18.000,0.000,0.000,0.000,0.000,0.000,18.000,No
 Zone Internal Gains, OFF-YUJIE,21.36,3.0,7.120,0.140,18.000,25.000,0.000,0.000,0.000,0.000,43.000,No
 Zone Internal Gains, OFF-BAPP,20.88,2.0,10.440,9.579E-002,18.000,7.500,0.000,0.000,0.000,0.000,25.500,No
 Zone Internal Gains, OFF-WEILI,20.88,2.0,10.440,9.579E-002,18.000,7.500,0.000,0.000,0.000,0.000,25.500,No
 Zone Internal Gains, OFF-ZHIANG,20.88,1.0,20.880,4.789E-002,18.000,25.000,0.000,0.000,0.000,0.000,43.000,No
 Zone Internal Gains, OFF-NINA,20.45,1.0,20.445,4.891E-002,18.000,7.500,0.000,0.000,0.000,0.000,25.500,No
 Zone Internal Gains, OFF-VOLKER,21.75,1.0,21.750,4.598E-002,18.000,7.500,0.000,0.000,0.000,0.000,25.500,No
 Zone Internal Gains, OFF-ERICA,21.75,1.0,21.750,4.598E-002,18.000,7.500,0.000,0.000,0.000,0.000,25.500,No
 Zone Internal Gains, OFF-JAMES,21.36,1.0,21.359,4.682E-002,18.000,7.500,0.000,0.000,0.000,0.000,25.500,No
 Zone Internal Gains, OFF-VIVIAN,20.88,1.0,20.880,4.789E-002,18.000,7.500,0.000,0.000,0.000,0.000,25.500,No
 Zone Internal Gains, OFF-CHENLU,20.88,4.0,5.220,0.192,18.000,25.000,0.000,0.000,0.000,0.000,43.000,No
 Zone Internal Gains, OFF-OMER,20.88,1.0,20.880,4.789E-002,18.000,7.500,0.000,0.000,0.000,0.000,25.500,No
 Zone Internal Gains, SMALLCONF,20.45,2.0,10.000,0.100,18.000,0.000,0.000,0.000,0.000,0.000,18.000,No
 Zone Internal Gains, LARGECONF1,67.30,13.5,4.996,0.200,18.014,7.500,0.000,0.000,0.000,0.000,25.514,No
 Zone Internal Gains, OFF-ANNIE,21.73,1.0,21.734,4.601E-002,18.032,0.000,0.000,0.000,0.000,0.000,18.032,No
 Zone Internal Gains, LARGECONF0,67.40,13.5,5.000,0.200,18.000,7.500,0.000,0.000,0.000,0.000,25.500,No
 Zone Internal Gains, OFF-SUREKHA,21.77,1.0,21.768,4.594E-002,18.000,7.500,0.000,0.000,0.000,0.000,25.500,No
! <People Internal Gains - Nominal>,Name,Schedule Name,Zone Name,Zone Floor Area {m2},# Zone Occupants,Number of People {},People/Floor Area {person/m2},Floor Area per person {m2/person},Fraction Radiant,Fraction Convected,Sensible Fraction Calculation,Activity level,ASHRAE 55 Warnings,Carbon Dioxide Generation Rate,Nominal Minimum Number of People,Nominal Maximum Number of People
 People Internal Gains, PEOPLE CORRINOR,OFFICE_CIRCULATION_OCC,CORRINOR,19.30,1.9,1.9,0.100,10.000,0.300,0.700,AutoCalculate,ACTIVITY SCHEDULE WALKING,No,3.8200E-008,0,2
 People Internal Gains, PEOPLE KITCHEN,OFFICE_EATDRINK_OCC,KITCHEN,35.95,2.9,2.9,8.000E-002,12.500,0.300,0.700,AutoCalculate,ACTIVITY SCHEDULE WALKING,No,3.8200E-008,0,3
 People Internal Gains, PEOPLE BAS,OFFICE_OPENOFF_OCC,BAS,21.75,0.0,0.0,0.000,N/A,0.300,0.700,AutoCalculate,ACTIVITY SCHEDULE SEATED,No,3.8200E-008,0,0
 People Internal Gains, PEOPLE STAIRNCOM,IW_CIRCULATION_OCC,STAIRNCOM,57.70,1.7,1.7,3.000E-002,33.333,0.300,0.700,AutoCalculate,ACTIVITY SCHEDULE SEATED,No,3.8200E-008,0,2
 People Internal Gains, PEOPLE CORRISOU,IW_CIRCULATION_OCC,CORRISOU,46.34,4.6,4.6,1.000E-001,10.000,0.300,0.700,AutoCalculate,ACTIVITY SCHEDULE WALKING,No,3.8200E-008,0,5
 People Internal Gains, PEOPLE OFF-YUJIE,IW_OFFICE_TERM_RELATED_OCC,OFF-YUJIE,21.36,3.0,3.0,0.140,7.120,0.300,0.700,AutoCalculate,ACTIVITY SCHEDULE SEATED,No,3.8200E-008,0,3
 People Internal Gains, PEOPLE OFF-BAPP,IW_OFFICE_TERM_RELATED_OCC,OFF-BAPP,20.88,2.0,2.0,9.579E-002,10.440,0.300,0.700,AutoCalculate,ACTIVITY SCHEDULE SEATED,No,3.8200E-008,0,2
 People Internal Gains, PEOPLE OFF-WEILI,IW_OFFICE_TERM_RELATED_OCC,OFF-WEILI,20.88,2.0,2.0,9.579E-002,10.440,0.300,0.700,AutoCalculate,ACTIVITY SCHEDULE SEATED,No,3.8200E-008,0,2
 People Internal Gains, PEOPLE OFF-ZHIANG,IW_OFFICE_ALLYEAR_OCC,OFF-ZHIANG,20.88,1.0,1.0,4.789E-002,20.880,0.300,0.700,AutoCalculate,ACTIVITY SCHEDULE SEATED,No,3.8200E-008,5.E-002,1
 People Internal Gains, PEOPLE OFF-NINA,IW_OFFICE_TERM_RELATED_OCC,OFF-NINA,20.45,1.0,1.0,4.891E-002,20.445,0.300,0.700,AutoCalculate,ACTIVITY SCHEDULE SEATED,No,3.8200E-008,5.E-002,1
 People Internal Gains, PEOPLE OFF-VOLKER,IW_OFFICE_TERM_RELATED_OCC,OFF-VOLKER,21.75,1.0,1.0,4.598E-002,21.750,0.300,0.700,AutoCalculate,ACTIVITY SCHEDULE SEATED,No,3.8200E-008,5.E-002,1
 People Internal Gains, PEOPLE OFF-ERICA,IW_OFFICE_TERM_RELATED_OCC,OFF-ERICA,21.75,1.0,1.0,4.598E-002,21.750,0.300,0.700,AutoCalculate,ACTIVITY SCHEDULE SEATED,No,3.8200E-008,5.E-002,1
 People Internal Gains, PEOPLE OFF-JAMES,IW_OFFICE_TERM_RELATED_OCC,OFF-JAMES,21.36,1.0,1.0,4.682E-002,21.359,0.300,0.700,AutoCalculate,ACTIVITY SCHEDULE SEATED,No,3.8200E-008,5.E-002,1
 People Internal Gains, PEOPLE OFF-VIVIAN,IW_OFFICE_TERM_RELATED_OCC,OFF-VIVIAN,20.88,1.0,1.0,4.789E-002,20.880,0.300,0.700,AutoCalculate,ACTIVITY SCHEDULE SEATED,No,3.8200E-008,5.E-002,1
 People Internal Gains, PEOPLE OFF-CHENLU,IW_OFFICE_TERM_RELATED_OCC,OFF-CHENLU,20.88,4.0,4.0,0.192,5.220,0.300,0.700,AutoCalculate,ACTIVITY SCHEDULE SEATED,No,3.8200E-008,0,4
 People Internal Gains, PEOPLE OFF-OMER,IW_OFFICE_ALLYEAR_OCC,OFF-OMER,20.88,1.0,1.0,4.789E-002,20.880,0.300,0.700,AutoCalculate,ACTIVITY SCHEDULE SEATED,No,3.8200E-008,5.E-002,1
 People Internal Gains, PEOPLE SMALLCONF,IW_CLASSROOM_OCC,SMALLCONF,20.45,2.0,2.0,0.100,10.000,0.300,0.700,AutoCalculate,ACTIVITY SCHEDULE SEATED,No,3.8200E-008,0,2
 People Internal Gains, PEOPLE LARGECONF1,IW_CLASSROOM_OCC,LARGECONF1,67.30,13.5,13.5,0.200,4.996,0.300,0.700,AutoCalculate,ACTIVITY SCHEDULE SEATED,No,3.8200E-008,0,13
 People Internal Gains, PEOPLE OFF-ANNIE,IW_OFFICE_TERM_RELATED_OCC,OFF-ANNIE,21.73,1.0,1.0,4.601E-002,21.734,0.300,0.700,AutoCalculate,ACTIVITY SCHEDULE SEATED,No,3.8200E-008,5.E-002,1
 People Internal Gains, PEOPLE LARGECONF0,IW_CLASSROOM_OCC,LARGECONF0,67.40,13.5,13.5,0.200,5.000,0.300,0.700,AutoCalculate,ACTIVITY SCHEDULE SEATED,No,3.8200E-008,0,13
 People Internal Gains, PEOPLE OFF-SUREKHA,IW_OFFICE_TERM_RELATED_OCC,OFF-SUREKHA,21.77,1.0,1.0,4.594E-002,21.768,0.300,0.700,AutoCalculate,ACTIVITY SCHEDULE SEATED,No,3.8200E-008,5.E-002,1
! <Lights Internal Gains - Nominal>,Name,Schedule Name,Zone Name,Zone Floor Area {m2},# Zone Occupants,Lighting Level {W},Lights/Floor Area {W/m2},Lights per person {W/person},Fraction Return Air,Fraction Radiant,Fraction Short Wave,Fraction Convected,Fraction Replaceable,End-Use Category,Nominal Minimum Lighting Level {W},Nominal Maximum Lighting Level {W}
 Lights Internal Gains, CORRINOR GENERAL LIGHTING,IW_OFF,CORRINOR,19.30,1.9,347.400,18.000,180.000,0.000,0.420,0.180,0.400,1.000,ELECTRIC EQUIPMENT#corriNor#GeneralLights,0.000,347.400
 Lights Internal Gains, KITCHEN GENERAL LIGHTING,IW_OFF,KITCHEN,35.95,2.9,647.078,18.000,225.000,0.000,0.420,0.180,0.400,1.000,ELECTRIC EQUIPMENT#kitchen#GeneralLights,0.000,647.078
 Lights Internal Gains, BAS GENERAL LIGHTING,IW_OFF,BAS,21.75,0.0,391.522,18.000,N/A,0.000,0.420,0.180,0.400,1.000,ELECTRIC EQUIPMENT#bas#GeneralLights,0.000,391.522
 Lights Internal Gains, STAIRNCOM GENERAL LIGHTING,IW_OFF,STAIRNCOM,57.70,1.7,1038.600,18.000,600.000,0.000,0.420,0.180,0.400,1.000,ELECTRIC EQUIPMENT#stairNcom#GeneralLights,0.000,1038.600
 Lights Internal Gains, CORRISOU GENERAL LIGHTING,IW_OFF,CORRISOU,46.34,4.6,834.107,18.000,180.000,0.000,0.420,0.180,0.400,1.000,ELECTRIC EQUIPMENT#corriSou#GeneralLights,0.000,834.107
 Lights Internal Gains, OFF-YUJIE GENERAL LIGHTING,IW_OFF,OFF-YUJIE,21.36,3.0,384.453,18.000,128.151,0.000,0.420,0.180,0.400,1.000,ELECTRIC EQUIPMENT#off-yujie#GeneralLights,0.000,384.453
 Lights Internal Gains, OFF-BAPP GENERAL LIGHTING,IW_OFF,OFF-BAPP,20.88,2.0,375.840,18.000,187.920,0.000,0.420,0.180,0.400,1.000,ELECTRIC EQUIPMENT#off-bapp#GeneralLights,0.000,375.840
 Lights Internal Gains, OFF-WEILI GENERAL LIGHTING,IW_OFF,OFF-WEILI,20.88,2.0,375.840,18.000,187.920,0.000,0.420,0.180,0.400,1.000,ELECTRIC EQUIPMENT#off-weili#GeneralLights,0.000,375.840
 Lights Internal Gains, OFF-ZHIANG GENERAL LIGHTING,IW_OFFICE_PHD_LIGHT,OFF-ZHIANG,20.88,1.0,375.840,18.000,375.840,0.000,0.420,0.180,0.400,1.000,ELECTRIC EQUIPMENT#off-zhiang#GeneralLights,0.000,375.840
 Lights Internal Gains, OFF-NINA GENERAL LIGHTING,IW_OFF,OFF-NINA,20.45,1.0,368.010,18.000,368.010,0.000,0.420,0.180,0.400,1.000,ELECTRIC EQUIPMENT#off-nina#GeneralLights,0.000,368.010
 Lights Internal Gains, OFF-VOLKER GENERAL LIGHTING,IW_OFF,OFF-VOLKER,21.75,1.0,391.500,18.000,391.500,0.000,0.420,0.180,0.400,1.000,ELECTRIC EQUIPMENT#off-volker#GeneralLights,0.000,391.500
 Lights Internal Gains, OFF-ERICA GENERAL LIGHTING,IW_OFF,OFF-ERICA,21.75,1.0,391.500,18.000,391.500,0.000,0.420,0.180,0.400,1.000,ELECTRIC EQUIPMENT#off-erica#GeneralLights,0.000,391.500
 Lights Internal Gains, OFF-JAMES GENERAL LIGHTING,IW_OFF,OFF-JAMES,21.36,1.0,384.453,18.000,384.453,0.000,0.420,0.180,0.400,1.000,ELECTRIC EQUIPMENT#off-james#GeneralLights,0.000,384.453
 Lights Internal Gains, OFF-VIVIAN GENERAL LIGHTING,IW_OFF,OFF-VIVIAN,20.88,1.0,375.840,18.000,375.840,0.000,0.420,0.180,0.400,1.000,ELECTRIC EQUIPMENT#off-vivian#GeneralLights,0.000,375.840
 Lights Internal Gains, OFF-CHENLU GENERAL LIGHTING,IW_OFFICE_PHD_LIGHT,OFF-CHENLU,20.88,4.0,375.840,18.000,93.960,0.000,0.420,0.180,0.400,1.000,ELECTRIC EQUIPMENT#off-chenlu#GeneralLights,0.000,375.840
 Lights Internal Gains, OFF-OMER GENERAL LIGHTING,IW_OFF,OFF-OMER,20.88,1.0,375.840,18.000,375.840,0.000,0.420,0.180,0.400,1.000,ELECTRIC EQUIPMENT#off-omer#GeneralLights,0.000,375.840
 Lights Internal Gains, SMALLCONF GENERAL LIGHTING,IW_OFF,SMALLCONF,20.45,2.0,368.010,18.000,180.000,0.000,0.420,0.180,0.400,1.000,ELECTRIC EQUIPMENT#smallConf#GeneralLights,0.000,368.010
 Lights Internal Gains, LARGECONF1 GENERAL LIGHTING,IW_OFF,LARGECONF1,67.30,13.5,1212.280,18.014,90.000,0.000,0.420,0.180,0.400,1.000,ELECTRIC EQUIPMENT#largeConf1#GeneralLights,0.000,1212.280
 Lights Internal Gains, OFF-ANNIE GENERAL LIGHTING,IW_OFF,OFF-ANNIE,21.73,1.0,391.912,18.032,391.912,0.000,0.420,0.180,0.400,1.000,ELECTRIC EQUIPMENT#off-annie#GeneralLights,0.000,391.912
 Lights Internal Gains, LARGECONF0 GENERAL LIGHTING,IW_OFF,LARGECONF0,67.40,13.5,1213.196,18.000,90.000,0.000,0.420,0.180,0.400,1.000,ELECTRIC EQUIPMENT#largeConf0#GeneralLights,0.000,1213.196
 Lights Internal Gains, OFF-SUREKHA GENERAL LIGHTING,IW_OFF,OFF-SUREKHA,21.77,1.0,391.817,18.000,391.817,0.000,0.420,0.180,0.400,1.000,ELECTRIC EQUIPMENT#off-surekha#GeneralLights,0.000,391.817
! <ElectricEquipment Internal Gains - Nominal>,Name,Schedule Name,Zone Name,Zone Floor Area {m2},# Zone Occupants,Equipment Level {W},Equipment/Floor Area {W/m2},Equipment per person {W/person},Fraction Latent,Fraction Radiant,Fraction Lost,Fraction Convected,End-Use SubCategory,Nominal Minimum Equipment Level {W},Nominal Maximum Equipment Level {W}
 ElectricEquipment Internal Gains, KITCHEN EQUIPMENT 1,IW_OFFICE_ALLYEAR_OCC,KITCHEN,35.95,2.9,269.616,7.500,93.750,0.000,0.200,0.000,0.800,ELECTRIC EQUIPMENT#kitchen#05,13.481,269.616
 ElectricEquipment Internal Gains, BAS EQUIPMENT 1,IW_OFFICE_ALLYEAR_OCC,BAS,21.75,0.0,543.779,25.000,N/A,0.000,0.200,0.000,0.800,ELECTRIC EQUIPMENT#bas#05,27.189,543.779
 ElectricEquipment Internal Gains, OFF-YUJIE COMPUTING GAIN 1,IW_OFFICE_TERM_RELATED_OCC,OFF-YUJIE,21.36,3.0,533.963,25.000,177.988,0.000,0.200,0.000,0.800,ELECTRIC EQUIPMENT#off-yujie#05,26.698,533.963
 ElectricEquipment Internal Gains, OFF-BAPP COMPUTING GAIN 1,IW_OFFICE_TERM_RELATED_OCC,OFF-BAPP,20.88,2.0,156.600,7.500,78.300,0.000,0.200,0.000,0.800,ELECTRIC EQUIPMENT#off-bapp#05,7.830,156.600
 ElectricEquipment Internal Gains, OFF-WEILI COMPUTING GAIN 1,IW_OFFICE_TERM_RELATED_OCC,OFF-WEILI,20.88,2.0,156.600,7.500,78.300,0.000,0.200,0.000,0.800,ELECTRIC EQUIPMENT#off-weili#05,7.830,156.600
 ElectricEquipment Internal Gains, OFF-ZHIANG COMPUTING GAIN 1,IW_OFFICE_ALLYEAR_OCC,OFF-ZHIANG,20.88,1.0,522.000,25.000,522.000,0.000,0.200,0.000,0.800,ELECTRIC EQUIPMENT#off-zhiang#05,26.100,522.000
 ElectricEquipment Internal Gains, OFF-NINA COMPUTING GAIN 1,IW_OFFICE_TERM_RELATED_OCC,OFF-NINA,20.45,1.0,153.338,7.500,153.338,0.000,0.200,0.000,0.800,ELECTRIC EQUIPMENT#off-nina#05,7.667,153.338
 ElectricEquipment Internal Gains, OFF-VOLKER COMPUTING GAIN 1,IW_OFFICE_TERM_RELATED_OCC,OFF-VOLKER,21.75,1.0,163.125,7.500,163.125,0.000,0.200,0.000,0.800,ELECTRIC EQUIPMENT#off-volker#05,8.156,163.125
 ElectricEquipment Internal Gains, OFF-ERICA COMPUTING GAIN 1,IW_OFFICE_TERM_RELATED_OCC,OFF-ERICA,21.75,1.0,163.125,7.500,163.125,0.000,0.200,0.000,0.800,ELECTRIC EQUIPMENT#off-erica#05,8.156,163.125
 ElectricEquipment Internal Gains, OFF-JAMES COMPUTING GAIN 1,IW_OFFICE_TERM_RELATED_OCC,OFF-JAMES,21.36,1.0,160.189,7.500,160.189,0.000,0.200,0.000,0.800,ELECTRIC EQUIPMENT#off-james#05,8.009,160.189
 ElectricEquipment Internal Gains, OFF-VIVIAN COMPUTING GAIN 1,IW_OFFICE_TERM_RELATED_OCC,OFF-VIVIAN,20.88,1.0,156.600,7.500,156.600,0.000,0.200,0.000,0.800,ELECTRIC EQUIPMENT#off-vivian#05,7.830,156.600
 ElectricEquipment Internal Gains, OFF-CHENLU COMPUTING GAIN 1,IW_OFFICE_TERM_RELATED_OCC,OFF-CHENLU,20.88,4.0,522.000,25.000,130.500,0.000,0.200,0.000,0.800,ELECTRIC EQUIPMENT#off-chenlu#05,26.100,522.000
 ElectricEquipment Internal Gains, OFF-OMER COMPUTING GAIN 1,IW_OFFICE_ALLYEAR_OCC,OFF-OMER,20.88,1.0,156.600,7.500,156.600,0.000,0.200,0.000,0.800,ELECTRIC EQUIPMENT#off-omer#05,7.830,156.600
 ElectricEquipment Internal Gains, LARGECONF1 EQUIPMENT 1,IW_CLASSROOM_OCC,LARGECONF1,67.30,13.5,504.735,7.500,37.472,0.000,0.200,0.000,0.800,ELECTRIC EQUIPMENT#largeConf1#05,0.000,504.735
 ElectricEquipment Internal Gains, OFF-ANNIE COMPUTING GAIN 1,IW_OFFICE_TERM_RELATED_OCC,OFF-ANNIE,21.73,1.0,0.000,0.000,0.000,0.000,0.200,0.000,0.800,ELECTRIC EQUIPMENT#off-annie#05,0.000,0.000
 ElectricEquipment Internal Gains, LARGECONF0 EQUIPMENT 1,IW_CLASSROOM_OCC,LARGECONF0,67.40,13.5,505.498,7.500,37.500,0.000,0.200,0.000,0.800,ELECTRIC EQUIPMENT#largeConf0#05,0.000,505.498
 ElectricEquipment Internal Gains, OFF-SUREKHA COMPUTING GAIN 1,IW_OFFICE_TERM_RELATED_OCC,OFF-SUREKHA,21.77,1.0,163.257,7.500,163.257,0.000,0.200,0.000,0.800,ELECTRIC EQUIPMENT#off-surekha#05,8.163,163.257
! <Construction CTF>,Construction Name,Index,#Layers,#CTFs,Time Step {hours},ThermalConductance {w/m2-K},OuterThermalAbsorptance,InnerThermalAbsorptance,OuterSolarAbsorptance,InnerSolarAbsorptance,Roughness
! <Material CTF Summary>,Material Name,Thickness {m},Conductivity {w/m-K},Density {kg/m3},Specific Heat {J/kg-K},ThermalResistance {m2-K/w}
! <Material:Air>,Material Name,ThermalResistance {m2-K/w}
! <CTF>,Time,Outside,Cross,Inside,Flux (except final one)
 Construction CTF,LINEARBRIDGINGCONSTRUCTION,   2,   1,   1,   1.000,      1.596    ,   0.010,   0.010,   0.010,   0.010,Rough
 Material CTF Summary,LINEARBRIDGINGLAYER,  0.0000,         0.000,      0.000,        0.000,  0.6267    
 CTF,   1,       0.0000000    ,       0.0000000    ,      -0.0000000    ,      -0.0000000    
 CTF,   0,       1.5956598    ,       1.5956598    ,       1.5956598    
 Construction CTF,FLOOR_SLAB_1,   3,   1,   5,   1.000,      5.650    ,   0.900,   0.900,   0.600,   0.600,Rough
 Material CTF Summary,AERATED_CONCRETE_20CM,  0.2000,         1.130,   2000.000,     1000.000,  0.1770    
 CTF,   5,     -0.15949775E-04,      0.78248830E-06,     -0.15949775E-04,      0.12877489E-06
 CTF,   4,      0.10538302E-01,      0.10120672E-02,      0.10538302E-01,     -0.10537603E-03
 CTF,   3,     -0.83751368    ,      0.75391337E-01,     -0.83751368    ,      0.11691735E-01
 CTF,   2,       10.463355    ,      0.62703024    ,       10.463355    ,     -0.21618871    
 CTF,   1,      -30.540285    ,      0.68579783    ,      -30.540285    ,      0.94802791    
 CTF,   0,       22.353567    ,      0.60412606E-01,       22.353567    
 Construction CTF,FLOOR_SLAB_2,   4,   1,   5,   1.000,      5.650    ,   0.900,   0.900,   0.600,   0.600,Rough
 Material CTF Summary,AERATED_CONCRETE_20CM,  0.2000,         1.130,   2000.000,     1000.000,  0.1770    
 CTF,   5,     -0.15949775E-04,      0.78248830E-06,     -0.15949775E-04,      0.12877489E-06
 CTF,   4,      0.10538302E-01,      0.10120672E-02,      0.10538302E-01,     -0.10537603E-03
 CTF,   3,     -0.83751368    ,      0.75391337E-01,     -0.83751368    ,      0.11691735E-01
 CTF,   2,       10.463355    ,      0.62703024    ,       10.463355    ,     -0.21618871    
 CTF,   1,      -30.540285    ,      0.68579783    ,      -30.540285    ,      0.94802791    
 CTF,   0,       22.353567    ,      0.60412606E-01,       22.353567    
 Construction CTF,INSULATED_METAL_PANEL_WALL_5,   5,   3,   4,   1.000,     0.3527    ,   0.900,   0.900,   0.600,   0.600,Rough
 Material CTF Summary,STEEL_5MM,  0.0500,        45.000,   7800.000,      480.000,  0.1111E-02
 Material CTF Summary,FOAM_POLYISOCYANATE_105MM,  0.0850,         0.030,     45.000,     1470.000,   2.833    
 Material CTF Summary,STEEL_5MM,  0.0500,        45.000,   7800.000,      480.000,  0.1111E-02
 CTF,   4,      0.15324180E-09,      0.16828659E-13,      0.15324180E-09,     -0.11984247E-16
 CTF,   3,     -0.17511523E-02,      0.13240517E-05,     -0.17511523E-02,      0.29463735E-11
 CTF,   2,       5.9347355    ,      0.79437520E-02,       5.9347355    ,     -0.33642787E-04
 CTF,   1,      -58.440607    ,      0.18707099    ,      -58.440607    ,      0.11374110    
 CTF,   0,       52.820186    ,      0.11754792    ,       52.820186    
 Construction CTF,PLENUM_CONCRETE_BASE_WALL_7,   6,   1,   5,   1.000,      3.767    ,   0.900,   0.900,   0.600,   0.600,Rough
 Material CTF Summary,AERATED_CONCRETE_30CM,  0.3000,         1.130,   2000.000,     1000.000,  0.2655    
 CTF,   5,     -0.27920260E-01,      0.12672113E-04,     -0.27920260E-01,      0.86636869E-03
 CTF,   4,      0.86080677    ,      0.23463545E-02,      0.86080677    ,     -0.28393765E-01
 CTF,   3,      -7.8840738    ,      0.37364734E-01,      -7.8840738    ,      0.28595068    
 CTF,   2,       27.379345    ,      0.10063136    ,       27.379345    ,      -1.1268845    
 CTF,   1,      -38.222705    ,      0.46741523E-01,      -38.222705    ,       1.8182754    
 CTF,   0,       18.083581    ,      0.19369050E-02,       18.083581    
 Construction CTF,INTERNAL_PARTITION_9,   7,   3,   3,   1.000,      2.857    ,   0.900,   0.900,   0.500,   0.500,Rough
 Material CTF Summary,GYPSUM_PLASTERBOARD_25MM,  0.0250,         0.250,    900.000,     1000.000,  0.1000    
 Material CTF Summary,AIR_GAP_10MM,  0.0000,         0.000,      0.000,        0.000,  0.1500    
 Material CTF Summary,GYPSUM_PLASTERBOARD_25MM,  0.0250,         0.250,    900.000,     1000.000,  0.1000    
 CTF,   3,     -0.14515300E-04,      0.11354057E-05,     -0.14515300E-04,      0.74388611E-18
 CTF,   2,      0.46233136E-01,      0.22027044E-01,      0.46233136E-01,     -0.16835090E-04
 CTF,   1,      -4.8134590    ,       1.3509643    ,      -4.8134590    ,      0.21447554E-01
 CTF,   0,       7.5631526    ,       1.4229198    ,       7.5631526    
 Construction CTF,PITCHED_ROOF_RIP40_13,   8,   3,   3,   1.000,     0.2866    ,   0.900,   0.900,   0.600,   0.600,Rough
 Material CTF Summary,STAINLESS_STEEL_1CM,  0.0100,        29.000,   7850.000,      480.000,  0.3448E-03
 Material CTF Summary,RIP40_BATT_INSULATION_GLASS_FIBER_30CM,  0.1500,         0.043,     12.000,      840.000,   3.488    
 Material CTF Summary,STAINLESS_STEEL_1CM,  0.0100,        29.000,   7850.000,      480.000,  0.3448E-03
 CTF,   3,      0.17305745E-12,     -0.48559017E-12,      0.17305745E-12,       0.0000000    
 CTF,   2,      0.14584964E-01,      0.19608730E-04,      0.14584964E-01,     -0.29765040E-13
 CTF,   1,      -10.622400    ,      0.68601033E-01,      -10.622400    ,      0.13858434E-02
 CTF,   0,       10.894028    ,      0.21759216    ,       10.894028    
 Construction CTF,FLAT_ROOF_RIP10_15,   9,   3,   3,   1.000,     0.6151    ,   0.900,   0.900,   0.600,   0.600,Rough
 Material CTF Summary,STAINLESS_STEEL_1CM,  0.0100,        29.000,   7850.000,      480.000,  0.3448E-03
 Material CTF Summary,EPS_65MM,  0.0650,         0.040,     15.000,     1400.000,   1.625    
 Material CTF Summary,STAINLESS_STEEL_1CM,  0.0100,        29.000,   7850.000,      480.000,  0.3448E-03
 CTF,   3,     -0.19087025E-14,      0.11487095E-16,     -0.19087025E-14,       0.0000000    
 CTF,   2,      0.16908935E-05,      0.22612457E-08,      0.16908935E-05,     -0.18019375E-15
 CTF,   1,      -10.592503    ,      0.63748672E-01,      -10.592503    ,      0.16081248E-06
 CTF,   0,       11.207625    ,      0.55137478    ,       11.207625    
 Construction CTF,INTERNAL_FLOOR_3,  15,   2,   3,   1.000,      3.084    ,   0.900,   0.900,   0.700,   0.600,Rough
 Material CTF Summary,CARPET,  0.0000,         0.000,      0.000,        0.000,  0.2800    
 Material CTF Summary,AERATED_CONCRETE_1CM,  0.0500,         1.130,   2000.000,     1000.000,  0.4425E-01
 CTF,   3,     -0.13673999E-10,      0.23758613E-09,     -0.12473579E-07,      0.20751757E-16
 CTF,   2,      0.45086879E-03,      0.89854599E-02,      0.44045449    ,     -0.13872432E-07
 CTF,   1,     -0.49335157    ,       1.2255842    ,      -22.656574    ,      0.10881200    
 CTF,   0,       3.2413790    ,       1.5139088    ,       24.964598    
 Construction CTF,INTERNAL_FLOOR_4,  16,   2,   3,   1.000,      3.084    ,   0.900,   0.900,   0.600,   0.700,Rough
 Material CTF Summary,AERATED_CONCRETE_1CM,  0.0500,         1.130,   2000.000,     1000.000,  0.4425E-01
 Material CTF Summary,CARPET,  0.0000,         0.000,      0.000,        0.000,  0.2800    
 CTF,   3,     -0.12473579E-07,      0.23758613E-09,     -0.13673999E-10,      0.20751757E-16
 CTF,   2,      0.44045449    ,      0.89854599E-02,      0.45086879E-03,     -0.13872432E-07
 CTF,   1,      -22.656574    ,       1.2255842    ,     -0.49335157    ,      0.10881200    
 CTF,   0,       24.964598    ,       1.5139088    ,       3.2413790    
 Construction CTF,INTERNAL_FLOOR_NOCARPET,  17,   1,   3,   1.000,      22.60    ,   0.900,   0.900,   0.600,   0.600,Rough
 Material CTF Summary,AERATED_CONCRETE_1CM,  0.0500,         1.130,   2000.000,     1000.000,  0.4425E-01
 CTF,   3,     -0.41167244E-13,      0.29828189E-13,     -0.41167244E-13,       0.0000000    
 CTF,   2,      0.16668357E-02,      0.98529724E-03,      0.16668357E-02,     -0.76724575E-13
 CTF,   1,      -8.7583944    ,       5.1216279    ,      -8.7583944    ,      0.73653530E-03
 CTF,   0,       31.340082    ,       17.460741    ,       31.340082    
 Construction CTF,CEILING_TILE_PANEL_12,  21,   1,   2,   1.000,      11.20    ,   0.900,   0.900,   0.500,   0.500,Rough
 Material CTF Summary,CEILING_TILE_1CM,  0.0050,         0.056,    380.000,     1000.000,  0.8929E-01
 CTF,   2,      0.26264272E-11,      0.15525313E-11,      0.26264272E-11,       0.0000000    
 CTF,   1,     -0.16615226    ,      0.97736625E-01,     -0.16615226    ,      0.61081920E-10
 CTF,   0,       11.366152    ,       11.102263    ,       11.366152    
 Construction CTF,IRTSURFACE,  22,   1,   1,   1.000,      100.0    ,   1.000,   1.000,   1.000,   1.000,
 Material CTF Summary,IRTMATERIAL,  0.0000,         0.000,      0.000,        0.000,  0.1000E-01
 CTF,   1,       0.0000000    ,       0.0000000    ,      -0.0000000    ,      -0.0000000    
 CTF,   0,       100.00000    ,       100.00000    ,       100.00000    
 Construction CTF,WINDOW_FRAME_UIP0P49_MULL_17,  23,   3,   2,   1.000,      16.00    ,   0.900,   0.900,   0.600,   0.600,Rough
 Material CTF Summary,ALUMINIUM_2MM,  0.0030,       230.000,   2700.000,      880.000,  0.1304E-04
 Material CTF Summary,PVC_3CM,  0.0100,         0.160,   1380.000,     1000.000,  0.6250E-01
 Material CTF Summary,COPPER_2MM,  0.0020,       400.000,   8600.000,      390.000,  0.5000E-05
 CTF,   2,      0.46274673E-08,      0.22059120E-09,      0.44165773E-08,       0.0000000    
 CTF,   1,      -3.2746590    ,      0.62162537    ,      -3.1587569    ,      0.18275386E-08
 CTF,   0,       19.270041    ,       15.373757    ,       19.154139    
 QTF,   2,     -0.11027525E-14,     -0.13806760E-13
 QTF,   1,     -0.31079975E-05,      0.11263151E-04
 QTF,   0,     -0.76868913E-04,      0.99990876    
 Source/Sink Loc Internal Temp QTF,   2,      0.11027500E-14,     -0.13806760E-13,     -0.54257179E-19
 Source/Sink Loc Internal Temp QTF,   1,      0.31079975E-05,      0.11263151E-04,      0.48229019E-10
 Source/Sink Loc Internal Temp QTF,   0,      0.76868913E-04,      0.99990876    ,      0.49995519E-05
 User Loc Internal Temp QTF,   2,      0.11027500E-14,     -0.13806760E-13,     -0.54257179E-19
 User Loc Internal Temp QTF,   1,      0.31079975E-05,      0.11263151E-04,      0.48229019E-10
 User Loc Internal Temp QTF,   0,      0.76868913E-04,      0.99990876    ,      0.49995519E-05
 Construction CTF,COOLED_PANEL_12,  24,   2,   2,   1.000,    100000.    ,   0.900,   0.900,   0.600,   0.600,Rough
 Material CTF Summary,COPPER_2MM,  0.0020,       400.000,   8600.000,      390.000,  0.5000E-05
 Material CTF Summary,COPPER_2MM,  0.0020,       400.000,   8600.000,      390.000,  0.5000E-05
 CTF,   2,      0.98929502E-14,     -0.51820215E-14,      0.98929502E-14,       0.0000000    
 CTF,   1,      -1.2228125    ,      0.64052083    ,      -1.2228125    ,      0.80903247E-14
 CTF,   0,       100001.22    ,       99999.359    ,       100001.22    
 QTF,   2,      0.19367151E-19,     -0.19367151E-19
 QTF,   1,     -0.23938657E-05,      0.23938657E-05
 QTF,   0,     -0.49999761    ,      0.49999761    
 Source/Sink Loc Internal Temp QTF,   2,      0.50056617E-20,      0.50056617E-20,      0.13673304E-25
 Source/Sink Loc Internal Temp QTF,   1,      0.23938657E-05,      0.23938657E-05,      0.79256366E-11
 Source/Sink Loc Internal Temp QTF,   0,      0.49999761    ,      0.49999761    ,      0.24999921E-05
 User Loc Internal Temp QTF,   2,      0.50056617E-20,      0.50056617E-20,      0.13673304E-25
 User Loc Internal Temp QTF,   1,      0.23938657E-05,      0.23938657E-05,      0.79256366E-11
 User Loc Internal Temp QTF,   0,      0.49999761    ,      0.49999761    ,      0.24999921E-05
 Construction CTF,INSULATED_METAL_PANEL_WALL_MULL,  25,   3,   4,   1.000,     0.3528    ,   0.900,   0.900,   0.600,   0.600,Rough
 Material CTF Summary,STEEL_5MM,  0.0500,        45.000,   7800.000,      480.000,  0.1111E-02
 Material CTF Summary,FOAM_POLYISOCYANATE_105MM,  0.0850,         0.030,     45.000,     1470.000,   2.833    
 Material CTF Summary,COPPER_2MM,  0.0020,       400.000,   8600.000,      390.000,  0.5000E-05
 CTF,   4,      0.15031800E-09,      0.20031693E-10,     -0.96067973E-11,     -0.18251693E-16
 CTF,   3,     -0.17383088E-02,      0.84950588E-06,     -0.67593708E-04,      0.28973468E-11
 CTF,   2,       5.9248254    ,      0.66280991E-02,      0.23735854    ,     -0.33396090E-04
 CTF,   1,      -58.430527    ,      0.18043681    ,      -2.6344715    ,      0.11355157    
 CTF,   0,       52.820193    ,      0.12568700    ,       2.7099333    
 QTF,   4,     -0.18119135E-18,      0.79407823E-16
 QTF,   3,     -0.42471501E-11,      0.18382287E-09
 QTF,   2,     -0.33140190E-07,      0.32723715E-04
 QTF,   1,     -0.90218207E-06,     -0.11354344    
 QTF,   0,     -0.62843721E-06,      0.99999098    
 Source/Sink Loc Internal Temp QTF,   4,      0.20013506E-15,      0.79407349E-16,      0.42046968E-21
 Source/Sink Loc Internal Temp QTF,   3,      0.42478670E-11,      0.18382287E-09,      0.64902939E-15
 Source/Sink Loc Internal Temp QTF,   2,      0.33140195E-07,      0.32723715E-04,      0.16453718E-09
 Source/Sink Loc Internal Temp QTF,   1,      0.90218203E-06,     -0.11354344    ,     -0.56772623E-06
 Source/Sink Loc Internal Temp QTF,   0,      0.62843721E-06,      0.99999098    ,      0.49999630E-05
 User Loc Internal Temp QTF,   4,      0.20013506E-15,      0.79407349E-16,      0.42046968E-21
 User Loc Internal Temp QTF,   3,      0.42478670E-11,      0.18382287E-09,      0.64902939E-15
 User Loc Internal Temp QTF,   2,      0.33140195E-07,      0.32723715E-04,      0.16453718E-09
 User Loc Internal Temp QTF,   1,      0.90218203E-06,     -0.11354344    ,     -0.56772623E-06
 User Loc Internal Temp QTF,   0,      0.62843721E-06,      0.99999098    ,      0.49999630E-05
! <WindowConstruction>,Construction Name,Index,#Layers,Roughness,Conductance {W/m2-K},SHGC,Solar Transmittance at Normal Incidence,Visible Transmittance at Normal Incidence
! <WindowMaterial:Glazing>, Material Name, Optical Data Type, Spectral Data Set Name, Thickness {m}, Solar Transmittance,Front Solar Reflectance, Back Solar Reflectance, Visible Transmittance, Front Visible Reflectance,Back Visible Reflectance,Infrared Transmittance, Front Thermal Emissivity, Back Thermal Emissivity,Conductivity {W/m-K},Dirt Factor,Solar Diffusing
! <WindowMaterial:Gas>,Material Name,GasType,Thickness {m}
! <WindowMaterial:Shade>,Material Name,Thickness {m},Conductivity {W/m-K},Thermal Absorptance,Transmittance,Visible Transmittance,Shade Reflectance
! <WindowMaterial:Blind>,Material Name,Slat Width {m},Slat Separation {m},Slat Thickness {m},Slat Angle {deg},Slat Beam Solar Transmittance,Slat Beam Solar Front Reflectance,Blind To Glass Distance {m}
 WindowConstruction,GLASSASVIRTUALPARTITION,1,1,VerySmooth,3.137,0.991,0.990,0.990
 WindowMaterial:Glazing,GLASS_VERY_CLEAR,SpectralAverage,,1.00000E-003,0.99000,1.00000E-003,1.00000E-003,0.99000,1.00000E-003,1.00000E-003,0.99000,1.00000E-002,1.00000E-002,0.90000,1.00000,No
 WindowConstruction,LOWE_DOUBLE_LAYER_UIP0D43_100123456,10,1,VerySmooth,1.793,0.288,0.204,0.252
 WindowMaterial:Glazing,IW_EXT_WIN_SIMPLE,SpectralAverage,,4.05522E-002,0.20383,0.59096,0.59096,0.25200,0.16101,0.23769,0.00000,0.84000,0.84000,0.10557,1.00000,No
 WindowConstruction,LOWE_DOUBLE_LAYER_INSIDE_BLIND_2001,11,2,VerySmooth,1.793,0.233,4.431E-002,3.272E-002
 WindowMaterial:Glazing,IW_EXT_WIN_SIMPLE,SpectralAverage,,4.05522E-002,0.20383,0.59096,0.59096,0.25200,0.16101,0.23769,0.00000,0.84000,0.84000,0.10557,1.00000,No
 WindowMaterial:Blind,BLIND_3002,7.0000E-003,5.0000E-003,2.0000E-004,20.000,0.000,0.800,2.000E-002
 WindowConstruction,LOWE_DOUBLE_LAYER_INSIDE_SHADE_2003,12,2,VerySmooth,1.793,0.265,1.359E-002,1.422E-002
 WindowMaterial:Glazing,IW_EXT_WIN_SIMPLE,SpectralAverage,,4.05522E-002,0.20383,0.59096,0.59096,0.25200,0.16101,0.23769,0.00000,0.84000,0.84000,0.10557,1.00000,No
 WindowMaterial:Shade,,INTERNAL_SHADE_30004,5.000E-003,0.100,0.900,5.000E-002,5.000E-002,0.350
 WindowConstruction,LOWE_DOUBLE_LAYER_OUTSIDE_REFLECTOR_2004,13,2,Rough,1.699,5.635E-002,4.373E-002,3.325E-002
 WindowMaterial:Blind,EXTERNAL_REFLECTOR_30001,0.3700,0.3700,1.0000E-002,0.000,0.132,0.700,1.000
 WindowMaterial:Glazing,IW_EXT_WIN_SIMPLE,SpectralAverage,,4.05522E-002,0.20383,0.59096,0.59096,0.25200,0.16101,0.23769,0.00000,0.84000,0.84000,0.10557,1.00000,No
 WindowConstruction,LOWE_DOUBLE_LAYER_OUTSIDE_BLIND_2006,14,2,Rough,1.699,3.293E-002,2.558E-002,2.091E-002
 WindowMaterial:Blind,BLIND_3002,7.0000E-003,5.0000E-003,2.0000E-004,20.000,0.000,0.800,2.000E-002
 WindowMaterial:Glazing,IW_EXT_WIN_SIMPLE,SpectralAverage,,4.05522E-002,0.20383,0.59096,0.59096,0.25200,0.16101,0.23769,0.00000,0.84000,0.84000,0.10557,1.00000,No
 WindowConstruction,SINGLE_LAYER_GLAZING_11,18,1,VerySmooth,3.437,0.450,0.361,0.502
 WindowMaterial:Glazing,GLASS_3MM,SpectralAverage,,6.00000E-003,0.36000,9.30000E-002,0.20000,0.50000,3.50000E-002,5.40000E-002,0.00000,0.84000,0.10000,0.90000,1.00000,No
 WindowConstruction,SINGLE_LAYER_GLAZING_12,19,1,VerySmooth,3.437,0.450,0.361,0.502
 WindowMaterial:Glazing,GLASS_3MM,SpectralAverage,,6.00000E-003,0.36000,9.30000E-002,0.20000,0.50000,3.50000E-002,5.40000E-002,0.00000,0.84000,0.10000,0.90000,1.00000,No
 WindowConstruction,SINGLE_LAYER_GLAZING_9,20,1,VerySmooth,3.437,0.450,0.361,0.502
 WindowMaterial:Glazing,GLASS_3MM,SpectralAverage,,6.00000E-003,0.36000,9.30000E-002,0.20000,0.50000,3.50000E-002,5.40000E-002,0.00000,0.84000,0.10000,0.90000,1.00000,No
! <Shadowing/Sun Position Calculations> [Annual Simulations], Calculation Method, Value {days}, Allowable Number Figures in Shadow Overlap {}, Polygon Clipping Algorithm, Sky Diffuse Modeling Algorithm
Shadowing/Sun Position Calculations,AverageOverDaysInFrequency,20,15000,SutherlandHodgman,SimpleSkyDiffuseModeling
! <Surface Convection Parameters>, Surface Name, Outside Model Assignment, Outside Area [m2], Outside Perimeter [m], Outside Height [m], Inside Model Assignment, Inside Height [cm], Inside Perimeter Envelope [m], Inside Hydraulic Diameter [m], Window Wall Ratio [ ], Window Location [ ], Near Radiant [Yes/No], Has Active HVAC [Yes/No]
Surface Convection Parameters,UNDERFLOOR_VOID_SPACE_WALL_2_0_0,0,164.32,100.64,4.12,0,1.12,121.03,16.56,0.00,0,No,No
Surface Convection Parameters,UNDERFLOOR_VOID_SPACE_WALL_2_0_0_0_0_0_SUBSURFACE,0,164.32,100.64,4.12,0,1.12,121.03,16.56,0.00,0,No,No
Surface Convection Parameters,UNDERFLOOR_VOID_SPACE_WALL_3_0_0,0,57.00,74.17,4.12,0,1.12,121.03,16.56,0.00,0,No,No
Surface Convection Parameters,UNDERFLOOR_VOID_SPACE_WALL_3_0_0_0_0_0_SUBSURFACE,0,57.00,74.17,4.12,0,1.12,121.03,16.56,0.00,0,No,No
Surface Convection Parameters,UNDERFLOOR_VOID_SPACE_WALL_4_0_0,0,164.32,100.64,4.12,0,1.12,121.03,16.56,0.00,0,No,No
Surface Convection Parameters,UNDERFLOOR_VOID_SPACE_WALL_4_0_0_0_0_0_SUBSURFACE,0,164.32,100.64,4.12,0,1.12,121.03,16.56,0.00,0,No,No
Surface Convection Parameters,UNDERFLOOR_VOID_SPACE_WALL_5_0_0,0,67.61,99.01,4.12,0,1.12,121.03,16.56,0.00,0,No,No
Surface Convection Parameters,UNDERFLOOR_VOID_SPACE_WALL_5_0_0_0_0_0_SUBSURFACE,0,67.61,99.01,4.12,0,1.12,121.03,16.56,0.00,0,No,No
Surface Convection Parameters,UNDERFLOOR_VOID_SPACE_WALL_6_0_0,0,164.23,96.26,4.12,0,1.12,121.03,16.56,0.00,0,No,No
Surface Convection Parameters,UNDERFLOOR_VOID_SPACE_WALL_6_0_0_0_0_0_SUBSURFACE,0,164.23,96.26,4.12,0,1.12,121.03,16.56,0.00,0,No,No
Surface Convection Parameters,UNDERFLOOR_VOID_SPACE_PARTITION_7_0_0,0,0.00,0.00,0.00,0,1.12,121.03,16.56,0.00,0,No,No
Surface Convection Parameters,UNDERFLOOR_VOID_SPACE_WALL_7_1_0,0,57.00,74.17,4.12,0,1.12,121.03,16.56,0.00,0,No,No
Surface Convection Parameters,UNDERFLOOR_VOID_SPACE_WALL_7_1_1,0,57.00,74.17,4.12,0,1.12,121.03,16.56,0.00,0,No,No
Surface Convection Parameters,UNDERFLOOR_VOID_SPACE_FLOOR_0_0_0,0,0.00,0.00,0.00,0,1.12,121.03,16.56,0.00,0,No,No
Surface Convection Parameters,UNDERFLOOR_VOID_SPACE_FLOOR_0_0_1,0,0.00,0.00,0.00,0,1.12,121.03,16.56,0.00,0,No,No
Surface Convection Parameters,UNDERFLOOR_VOID_SPACE_CEILING_1_0_0,0,0.00,0.00,0.00,0,1.12,121.03,16.56,0.00,0,No,No
Surface Convection Parameters,UNDERFLOOR_VOID_SPACE_CEILING_1_1_0,0,0.00,0.00,0.00,0,1.12,121.03,16.56,0.00,0,No,No
Surface Convection Parameters,UNDERFLOOR_VOID_SPACE_CEILING_1_2_0,0,0.00,0.00,0.00,0,1.12,121.03,16.56,0.00,0,No,No
Surface Convection Parameters,UNDERFLOOR_VOID_SPACE_CEILING_1_3_0,0,0.00,0.00,0.00,0,1.12,121.03,16.56,0.00,0,No,No
Surface Convection Parameters,UNDERFLOOR_VOID_SPACE_CEILING_1_4_0,0,0.00,0.00,0.00,0,1.12,121.03,16.56,0.00,0,No,No
Surface Convection Parameters,UNDERFLOOR_VOID_SPACE_CEILING_1_5_0,0,0.00,0.00,0.00,0,1.12,121.03,16.56,0.00,0,No,No
Surface Convection Parameters,UNDERFLOOR_VOID_SPACE_CEILING_1_6_0,0,0.00,0.00,0.00,0,1.12,121.03,16.56,0.00,0,No,No
Surface Convection Parameters,UNDERFLOOR_VOID_SPACE_CEILING_1_7_0,0,0.00,0.00,0.00,0,1.12,121.03,16.56,0.00,0,No,No
Surface Convection Parameters,UNDERFLOOR_VOID_SPACE_CEILING_1_8_0,0,0.00,0.00,0.00,0,1.12,121.03,16.56,0.00,0,No,No
Surface Convection Parameters,UNDERFLOOR_VOID_SPACE_CEILING_1_9_0,0,0.00,0.00,0.00,0,1.12,121.03,16.56,0.00,0,No,No
Surface Convection Parameters,UNDERFLOOR_VOID_SPACE_CEILING_1_10_0,0,0.00,0.00,0.00,0,1.12,121.03,16.56,0.00,0,No,No
Surface Convection Parameters,UNDERFLOOR_VOID_SPACE_CEILING_1_11_0,0,0.00,0.00,0.00,0,1.12,121.03,16.56,0.00,0,No,No
Surface Convection Parameters,UNDERFLOOR_VOID_SPACE_CEILING_1_12_0,0,0.00,0.00,0.00,0,1.12,121.03,16.56,0.00,0,No,No
Surface Convection Parameters,UNDERFLOOR_VOID_SPACE_CEILING_1_13_0,0,0.00,0.00,0.00,0,1.12,121.03,16.56,0.00,0,No,No
Surface Convection Parameters,UNDERFLOOR_VOID_SPACE_CEILING_1_14_0,0,0.00,0.00,0.00,0,1.12,121.03,16.56,0.00,0,No,No
Surface Convection Parameters,UNDERFLOOR_VOID_SPACE_CEILING_1_15_0,0,0.00,0.00,0.00,0,1.12,121.03,16.56,0.00,0,No,No
Surface Convection Parameters,UNDERFLOOR_VOID_SPACE_CEILING_1_16_0,0,0.00,0.00,0.00,0,1.12,121.03,16.56,0.00,0,No,No
Surface Convection Parameters,UNDERFLOOR_VOID_SPACE_CEILING_1_17_0,0,0.00,0.00,0.00,0,1.12,121.03,16.56,0.00,0,No,No
Surface Convection Parameters,UNDERFLOOR_VOID_SPACE_CEILING_1_18_0,0,0.00,0.00,0.00,0,1.12,121.03,16.56,0.00,0,No,No
Surface Convection Parameters,UNDERFLOOR_VOID_SPACE_CEILING_1_19_0,0,0.00,0.00,0.00,0,1.12,121.03,16.56,0.00,0,No,No
Surface Convection Parameters,UNDERFLOOR_VOID_SPACE_CEILING_1_20_0,0,0.00,0.00,0.00,0,1.12,121.03,16.56,0.00,0,No,No
Surface Convection Parameters,ROOFS1_FLOOR_0_0_0,0,0.00,0.00,0.00,0,0.71,0.00,2.22,-999.00,0,No,No
Surface Convection Parameters,ROOFS1_FLOOR_0_0_0_0_0_0_HOLE,75,0.00,0.00,0.00,75,0.71,0.00,2.22,-999.00,0,No,No
Surface Convection Parameters,ROOFS1_FLOOR_0_1_0,0,0.00,0.00,0.00,0,0.71,0.00,2.22,-999.00,0,No,No
Surface Convection Parameters,ROOFS1_FLOOR_0_1_0_0_0_1_HOLE,76,0.00,0.00,0.00,76,0.71,0.00,2.22,-999.00,0,No,No
Surface Convection Parameters,ROOFS1_FLOOR_0_2_0,0,0.00,0.00,0.00,0,0.71,0.00,2.22,-999.00,0,No,No
Surface Convection Parameters,ROOFS1_ROOF_1_0_0,0,700.15,107.54,1.30,0,0.71,0.00,2.22,-999.00,0,No,No
Surface Convection Parameters,ROOFS1_ROOF_2_0_0,0,700.15,107.54,1.30,0,0.71,0.00,2.22,-999.00,0,No,No
Surface Convection Parameters,ROOFS1_ROOF_3_0_0,0,700.15,107.54,1.30,0,0.71,0.00,2.22,-999.00,0,No,No
Surface Convection Parameters,ROOFS1_ROOF_4_0_0,0,700.15,107.54,1.30,0,0.71,0.00,2.22,-999.00,0,No,No
Surface Convection Parameters,ROOFS1_ROOF_5_0_0,0,700.15,107.54,1.30,0,0.71,0.00,2.22,-999.00,0,No,No
Surface Convection Parameters,ROOFS2_FLOOR_0_0_0,0,0.00,0.00,0.00,0,0.71,0.00,1.59E-002,-999.00,0,No,No
Surface Convection Parameters,ROOFS2_FLOOR_0_0_0_0_0_0_HOLE,77,0.00,0.00,0.00,77,0.71,0.00,1.59E-002,-999.00,0,No,No
Surface Convection Parameters,ROOFS2_FLOOR_0_1_0,0,0.00,0.00,0.00,0,0.71,0.00,1.59E-002,-999.00,0,No,No
Surface Convection Parameters,ROOFS2_FLOOR_0_1_0_0_0_1_HOLE,78,0.00,0.00,0.00,78,0.71,0.00,1.59E-002,-999.00,0,No,No
Surface Convection Parameters,ROOFS2_FLOOR_0_2_0,0,0.00,0.00,0.00,0,0.71,0.00,1.59E-002,-999.00,0,No,No
Surface Convection Parameters,ROOFS2_FLOOR_0_2_0_0_0_2_HOLE,79,0.00,0.00,0.00,79,0.71,0.00,1.59E-002,-999.00,0,No,No
Surface Convection Parameters,ROOFS2_ROOF_1_0_0,0,700.15,107.54,1.30,0,0.71,0.00,1.59E-002,-999.00,0,No,No
Surface Convection Parameters,ROOFS2_ROOF_2_0_0,0,700.15,107.54,1.30,0,0.71,0.00,1.59E-002,-999.00,0,No,No
Surface Convection Parameters,ROOFS2_ROOF_3_0_0,0,700.15,107.54,1.30,0,0.71,0.00,1.59E-002,-999.00,0,No,No
Surface Convection Parameters,ROOFS2_ROOF_4_0_0,0,700.15,107.54,1.30,0,0.71,0.00,1.59E-002,-999.00,0,No,No
Surface Convection Parameters,ROOFS2_ROOF_5_0_0,0,700.15,107.54,1.30,0,0.71,0.00,1.59E-002,-999.00,0,No,No
Surface Convection Parameters,ROOFS3_FLOOR_0_0_0,0,0.00,0.00,0.00,0,0.71,0.00,1.59E-002,-999.00,0,No,No
Surface Convection Parameters,ROOFS3_FLOOR_0_0_0_0_0_0_HOLE,80,0.00,0.00,0.00,80,0.71,0.00,1.59E-002,-999.00,0,No,No
Surface Convection Parameters,ROOFS3_FLOOR_0_1_0,0,0.00,0.00,0.00,0,0.71,0.00,1.59E-002,-999.00,0,No,No
Surface Convection Parameters,ROOFS3_FLOOR_0_1_0_0_0_1_HOLE,81,0.00,0.00,0.00,81,0.71,0.00,1.59E-002,-999.00,0,No,No
Surface Convection Parameters,ROOFS3_FLOOR_0_2_0,0,0.00,0.00,0.00,0,0.71,0.00,1.59E-002,-999.00,0,No,No
Surface Convection Parameters,ROOFS3_FLOOR_0_2_0_0_0_2_HOLE,82,0.00,0.00,0.00,82,0.71,0.00,1.59E-002,-999.00,0,No,No
Surface Convection Parameters,ROOFS3_ROOF_1_0_0,0,700.15,107.54,1.30,0,0.71,0.00,1.59E-002,-999.00,0,No,No
Surface Convection Parameters,ROOFS3_ROOF_2_0_0,0,700.15,107.54,1.30,0,0.71,0.00,1.59E-002,-999.00,0,No,No
Surface Convection Parameters,ROOFS3_ROOF_3_0_0,0,700.15,107.54,1.30,0,0.71,0.00,1.59E-002,-999.00,0,No,No
Surface Convection Parameters,ROOFS3_ROOF_4_0_0,0,700.15,107.54,1.30,0,0.71,0.00,1.59E-002,-999.00,0,No,No
Surface Convection Parameters,ROOFS3_ROOF_5_0_0,0,700.15,107.54,1.30,0,0.71,0.00,1.59E-002,-999.00,0,No,No
Surface Convection Parameters,ROOFS0_FLOOR_0_0_0,0,0.00,0.00,0.00,0,0.71,0.00,1.58E-002,-999.00,0,No,No
Surface Convection Parameters,ROOFS0_FLOOR_0_0_0_0_0_0_HOLE,83,0.00,0.00,0.00,83,0.71,0.00,1.58E-002,-999.00,0,No,No
Surface Convection Parameters,ROOFS0_FLOOR_0_1_0,0,0.00,0.00,0.00,0,0.71,0.00,1.58E-002,-999.00,0,No,No
Surface Convection Parameters,ROOFS0_FLOOR_0_1_0_0_0_1_HOLE,84,0.00,0.00,0.00,84,0.71,0.00,1.58E-002,-999.00,0,No,No
Surface Convection Parameters,ROOFS0_FLOOR_0_2_0,0,0.00,0.00,0.00,0,0.71,0.00,1.58E-002,-999.00,0,No,No
Surface Convection Parameters,ROOFS0_FLOOR_0_2_0_0_0_2_HOLE,85,0.00,0.00,0.00,85,0.71,0.00,1.58E-002,-999.00,0,No,No
Surface Convection Parameters,ROOFS0_ROOF_1_0_0,0,700.15,107.54,1.30,0,0.71,0.00,1.58E-002,-999.00,0,No,No
Surface Convection Parameters,ROOFS0_ROOF_2_0_0,0,700.15,107.54,1.30,0,0.71,0.00,1.58E-002,-999.00,0,No,No
Surface Convection Parameters,ROOFS0_ROOF_3_0_0,0,700.15,107.54,1.30,0,0.71,0.00,1.58E-002,-999.00,0,No,No
Surface Convection Parameters,ROOFS0_ROOF_4_0_0,0,700.15,107.54,1.30,0,0.71,0.00,1.58E-002,-999.00,0,No,No
Surface Convection Parameters,ROOFS0_ROOF_5_0_0,0,700.15,107.54,1.30,0,0.71,0.00,1.58E-002,-999.00,0,No,No
Surface Convection Parameters,ROOFS4_FLOOR_0_0_0,0,0.00,0.00,0.00,0,0.71,0.00,1.60E-002,-999.00,0,No,No
Surface Convection Parameters,ROOFS4_FLOOR_0_0_0_0_0_0_HOLE,86,0.00,0.00,0.00,86,0.71,0.00,1.60E-002,-999.00,0,No,No
Surface Convection Parameters,ROOFS4_FLOOR_0_1_0,0,0.00,0.00,0.00,0,0.71,0.00,1.60E-002,-999.00,0,No,No
Surface Convection Parameters,ROOFS4_FLOOR_0_1_0_0_0_1_HOLE,87,0.00,0.00,0.00,87,0.71,0.00,1.60E-002,-999.00,0,No,No
Surface Convection Parameters,ROOFS4_FLOOR_0_2_0,0,0.00,0.00,0.00,0,0.71,0.00,1.60E-002,-999.00,0,No,No
Surface Convection Parameters,ROOFS4_FLOOR_0_2_0_0_0_2_HOLE,88,0.00,0.00,0.00,88,0.71,0.00,1.60E-002,-999.00,0,No,No
Surface Convection Parameters,ROOFS4_ROOF_1_0_0,0,700.15,107.54,1.30,0,0.71,0.00,1.60E-002,-999.00,0,No,No
Surface Convection Parameters,ROOFS4_ROOF_2_0_0,0,700.15,107.54,1.30,0,0.71,0.00,1.60E-002,-999.00,0,No,No
Surface Convection Parameters,ROOFS4_ROOF_3_0_0,0,700.15,107.54,1.30,0,0.71,0.00,1.60E-002,-999.00,0,No,No
Surface Convection Parameters,ROOFS4_ROOF_4_0_0,0,700.15,107.54,1.30,0,0.71,0.00,1.60E-002,-999.00,0,No,No
Surface Convection Parameters,ROOFS4_ROOF_5_0_0,0,700.15,107.54,1.30,0,0.71,0.00,1.60E-002,-999.00,0,No,No
Surface Convection Parameters,ROOFN0_FLOOR_0_0_0,0,0.00,0.00,0.00,0,0.74,0.00,0.37,-999.00,0,No,No
Surface Convection Parameters,ROOFN0_FLOOR_0_0_0_0_0_0_HOLE,89,0.00,0.00,0.00,89,0.74,0.00,0.37,-999.00,0,No,No
Surface Convection Parameters,ROOFN0_FLOOR_0_1_0,0,0.00,0.00,0.00,0,0.74,0.00,0.37,-999.00,0,No,No
Surface Convection Parameters,ROOFN0_FLOOR_0_1_0_0_0_1_HOLE,90,0.00,0.00,0.00,90,0.74,0.00,0.37,-999.00,0,No,No
Surface Convection Parameters,ROOFN0_FLOOR_0_2_0,0,0.00,0.00,0.00,0,0.74,0.00,0.37,-999.00,0,No,No
Surface Convection Parameters,ROOFN0_FLOOR_0_2_0_0_0_2_HOLE,91,0.00,0.00,0.00,91,0.74,0.00,0.37,-999.00,0,No,No
Surface Convection Parameters,ROOFN0_ROOF_1_0_0,0,700.15,107.54,1.30,0,0.74,0.00,0.37,-999.00,0,No,No
Surface Convection Parameters,ROOFN0_ROOF_2_0_0,0,700.15,107.54,1.30,0,0.74,0.00,0.37,-999.00,0,No,No
Surface Convection Parameters,ROOFN0_ROOF_2_0_0_0_0_0_WIN,0,700.15,107.54,1.30,0,0.74,0.00,0.37,-999.00,0,No,No
Surface Convection Parameters,ROOFN0_ROOF_2_0_0_1_0_1_WIN,0,700.15,107.54,1.30,0,0.74,0.00,0.37,-999.00,0,No,No
Surface Convection Parameters,ROOFN0_ROOF_2_0_0_2_0_2_WIN,0,700.15,107.54,1.30,0,0.74,0.00,0.37,-999.00,0,No,No
Surface Convection Parameters,ROOFN0_ROOF_2_0_0_3_0_3_WIN,0,700.15,107.54,1.30,0,0.74,0.00,0.37,-999.00,0,No,No
Surface Convection Parameters,ROOFN0_ROOF_2_0_0_4_0_4_WIN,0,700.15,107.54,1.30,0,0.74,0.00,0.37,-999.00,0,No,No
Surface Convection Parameters,ROOFN0_ROOF_3_0_0,0,700.15,107.54,1.30,0,0.74,0.00,0.37,-999.00,0,No,No
Surface Convection Parameters,ROOFN0_ROOF_4_0_0,0,700.15,107.54,1.30,0,0.74,0.00,0.37,-999.00,0,No,No
Surface Convection Parameters,ROOFN0_ROOF_4_0_0_0_0_0_WIN,0,700.15,107.54,1.30,0,0.74,0.00,0.37,-999.00,0,No,No
Surface Convection Parameters,ROOFN0_ROOF_4_0_0_1_0_1_WIN,0,700.15,107.54,1.30,0,0.74,0.00,0.37,-999.00,0,No,No
Surface Convection Parameters,ROOFN0_ROOF_4_0_0_2_0_2_WIN,0,700.15,107.54,1.30,0,0.74,0.00,0.37,-999.00,0,No,No
Surface Convection Parameters,ROOFN0_ROOF_4_0_0_3_0_3_WIN,0,700.15,107.54,1.30,0,0.74,0.00,0.37,-999.00,0,No,No
Surface Convection Parameters,ROOFN0_ROOF_4_0_0_4_0_4_WIN,0,700.15,107.54,1.30,0,0.74,0.00,0.37,-999.00,0,No,No
Surface Convection Parameters,ROOFN0_ROOF_5_0_0,0,700.15,107.54,1.30,0,0.74,0.00,0.37,-999.00,0,No,No
Surface Convection Parameters,ROOFN3_FLOOR_0_0_0,0,0.00,0.00,0.00,0,0.72,0.00,1.06E-002,-999.00,0,No,No
Surface Convection Parameters,ROOFN3_FLOOR_0_0_0_0_0_0_HOLE,92,0.00,0.00,0.00,92,0.72,0.00,1.06E-002,-999.00,0,No,No
Surface Convection Parameters,ROOFN3_FLOOR_0_1_0,0,0.00,0.00,0.00,0,0.72,0.00,1.06E-002,-999.00,0,No,No
Surface Convection Parameters,ROOFN3_FLOOR_0_1_0_0_0_1_HOLE,93,0.00,0.00,0.00,93,0.72,0.00,1.06E-002,-999.00,0,No,No
Surface Convection Parameters,ROOFN3_ROOF_1_0_0,0,700.15,107.54,1.30,0,0.72,0.00,1.06E-002,-999.00,0,No,No
Surface Convection Parameters,ROOFN3_ROOF_2_0_0,0,700.15,107.54,1.30,0,0.72,0.00,1.06E-002,-999.00,0,No,No
Surface Convection Parameters,ROOFN3_ROOF_3_0_0,0,700.15,107.54,1.30,0,0.72,0.00,1.06E-002,-999.00,0,No,No
Surface Convection Parameters,ROOFN3_ROOF_4_0_0,0,700.15,107.54,1.30,0,0.72,0.00,1.06E-002,-999.00,0,No,No
Surface Convection Parameters,ROOFN3_ROOF_5_0_0,0,700.15,107.54,1.30,0,0.72,0.00,1.06E-002,-999.00,0,No,No
Surface Convection Parameters,ROOFN1_FLOOR_0_0_0,0,0.00,0.00,0.00,0,0.73,0.00,1.09,-999.00,0,No,No
Surface Convection Parameters,ROOFN1_FLOOR_0_0_0_0_0_0_HOLE,94,0.00,0.00,0.00,94,0.73,0.00,1.09,-999.00,0,No,No
Surface Convection Parameters,ROOFN1_FLOOR_0_1_0,0,0.00,0.00,0.00,0,0.73,0.00,1.09,-999.00,0,No,No
Surface Convection Parameters,ROOFN1_FLOOR_0_1_0_HOLE,0,0.00,0.00,0.00,0,0.73,0.00,1.09,-999.00,0,No,No
Surface Convection Parameters,ROOFN1_FLOOR_0_1_0_0_0_1_HOLE,95,0.00,0.00,0.00,95,0.73,0.00,1.09,-999.00,0,No,No
Surface Convection Parameters,ROOFN1_FLOOR_0_2_0,0,0.00,0.00,0.00,0,0.73,0.00,1.09,-999.00,0,No,No
Surface Convection Parameters,ROOFN1_FLOOR_0_2_0_0_0_2_HOLE,96,0.00,0.00,0.00,96,0.73,0.00,1.09,-999.00,0,No,No
Surface Convection Parameters,ROOFN1_FLOOR_0_3_0,0,0.00,0.00,0.00,0,0.73,0.00,1.09,-999.00,0,No,No
Surface Convection Parameters,ROOFN1_FLOOR_0_3_0_0_0_3_HOLE,97,0.00,0.00,0.00,97,0.73,0.00,1.09,-999.00,0,No,No
Surface Convection Parameters,ROOFN1_ROOF_1_0_0,0,700.15,107.54,1.30,0,0.73,0.00,1.09,-999.00,0,No,No
Surface Convection Parameters,ROOFN1_ROOF_2_0_0,0,700.15,107.54,1.30,0,0.73,0.00,1.09,-999.00,0,No,No
Surface Convection Parameters,ROOFN1_ROOF_2_0_0_0_0_0_WIN,0,700.15,107.54,1.30,0,0.73,0.00,1.09,-999.00,0,No,No
Surface Convection Parameters,ROOFN1_ROOF_2_0_0_1_0_1_WIN,0,700.15,107.54,1.30,0,0.73,0.00,1.09,-999.00,0,No,No
Surface Convection Parameters,ROOFN1_ROOF_2_0_0_2_0_2_WIN,0,700.15,107.54,1.30,0,0.73,0.00,1.09,-999.00,0,No,No
Surface Convection Parameters,ROOFN1_ROOF_3_0_0,0,700.15,107.54,1.30,0,0.73,0.00,1.09,-999.00,0,No,No
Surface Convection Parameters,ROOFN1_ROOF_4_0_0,0,700.15,107.54,1.30,0,0.73,0.00,1.09,-999.00,0,No,No
Surface Convection Parameters,ROOFN1_ROOF_4_0_0_0_0_0_WIN,0,700.15,107.54,1.30,0,0.73,0.00,1.09,-999.00,0,No,No
Surface Convection Parameters,ROOFN1_ROOF_4_0_0_1_0_1_WIN,0,700.15,107.54,1.30,0,0.73,0.00,1.09,-999.00,0,No,No
Surface Convection Parameters,ROOFN1_ROOF_4_0_0_2_0_2_WIN,0,700.15,107.54,1.30,0,0.73,0.00,1.09,-999.00,0,No,No
Surface Convection Parameters,ROOFN1_ROOF_5_0_0,0,700.15,107.54,1.30,0,0.73,0.00,1.09,-999.00,0,No,No
Surface Convection Parameters,ROOFN2_FLOOR_0_0_0,0,0.00,0.00,0.00,0,0.73,0.00,1.19E-002,-999.00,0,No,No
Surface Convection Parameters,ROOFN2_FLOOR_0_0_0_0_0_0_HOLE,98,0.00,0.00,0.00,98,0.73,0.00,1.19E-002,-999.00,0,No,No
Surface Convection Parameters,ROOFN2_FLOOR_0_1_0,0,0.00,0.00,0.00,0,0.73,0.00,1.19E-002,-999.00,0,No,No
Surface Convection Parameters,ROOFN2_FLOOR_0_1_0_0_0_1_HOLE,99,0.00,0.00,0.00,99,0.73,0.00,1.19E-002,-999.00,0,No,No
Surface Convection Parameters,ROOFN2_ROOF_1_0_0,0,700.15,107.54,1.30,0,0.73,0.00,1.19E-002,-999.00,0,No,No
Surface Convection Parameters,ROOFN2_ROOF_2_0_0,0,700.15,107.54,1.30,0,0.73,0.00,1.19E-002,-999.00,0,No,No
Surface Convection Parameters,ROOFN2_ROOF_2_0_0_0_0_0_WIN,0,700.15,107.54,1.30,0,0.73,0.00,1.19E-002,-999.00,0,No,No
Surface Convection Parameters,ROOFN2_ROOF_2_0_0_1_0_1_WIN,0,700.15,107.54,1.30,0,0.73,0.00,1.19E-002,-999.00,0,No,No
Surface Convection Parameters,ROOFN2_ROOF_2_0_0_2_0_2_WIN,0,700.15,107.54,1.30,0,0.73,0.00,1.19E-002,-999.00,0,No,No
Surface Convection Parameters,ROOFN2_ROOF_3_0_0,0,700.15,107.54,1.30,0,0.73,0.00,1.19E-002,-999.00,0,No,No
Surface Convection Parameters,ROOFN2_ROOF_4_0_0,0,700.15,107.54,1.30,0,0.73,0.00,1.19E-002,-999.00,0,No,No
Surface Convection Parameters,ROOFN2_ROOF_4_0_0_0_0_0_WIN,0,700.15,107.54,1.30,0,0.73,0.00,1.19E-002,-999.00,0,No,No
Surface Convection Parameters,ROOFN2_ROOF_4_0_0_1_0_1_WIN,0,700.15,107.54,1.30,0,0.73,0.00,1.19E-002,-999.00,0,No,No
Surface Convection Parameters,ROOFN2_ROOF_4_0_0_2_0_2_WIN,0,700.15,107.54,1.30,0,0.73,0.00,1.19E-002,-999.00,0,No,No
Surface Convection Parameters,ROOFN2_ROOF_5_0_0,0,700.15,107.54,1.30,0,0.73,0.00,1.19E-002,-999.00,0,No,No
Surface Convection Parameters,CORRINOR_PARTITION_ERICA,0,0.00,0.00,0.00,0,3.00,0.00,2.64,-999.00,0,No,No
Surface Convection Parameters,CORRINOR_PARTITION_ERICA_HOLE,30,0.00,0.00,0.00,30,3.00,0.00,2.64,-999.00,0,No,No
Surface Convection Parameters,CORRINOR_PARTITION_VOLKER,0,0.00,0.00,0.00,0,3.00,0.00,2.64,-999.00,0,No,No
Surface Convection Parameters,CORRINOR_PARTITION_VOLKER_HOLE,34,0.00,0.00,0.00,34,3.00,0.00,2.64,-999.00,0,No,No
Surface Convection Parameters,CORRINOR_PARTITION_NORTH,0,0.00,0.00,0.00,0,3.00,0.00,2.64,-999.00,0,No,No
Surface Convection Parameters,CORRINOR_PARTITION_NORTH_HOLE,35,0.00,0.00,0.00,35,3.00,0.00,2.64,-999.00,0,No,No
Surface Convection Parameters,CORRINOR_PARTITION_STAIRNCOM,0,0.00,0.00,0.00,0,3.00,0.00,2.64,-999.00,0,No,No
Surface Convection Parameters,CORRINOR_PARTITION_STAIRNCOM_HOLE,50,0.00,0.00,0.00,50,3.00,0.00,2.64,-999.00,0,No,No
Surface Convection Parameters,CORRINOR_PARTITION_SOUTH,0,0.00,0.00,0.00,0,3.00,0.00,2.64,-999.00,0,No,No
Surface Convection Parameters,CORRINOR_PARTITION_SOUTH_HOLE,51,0.00,0.00,0.00,51,3.00,0.00,2.64,-999.00,0,No,No
Surface Convection Parameters,CORRINOR_PARTITION_EAST_NORTH,0,0.00,0.00,0.00,0,3.00,0.00,2.64,-999.00,0,No,No
Surface Convection Parameters,CORRINOR_PARTITION_EAST_NORTH_HOLE,72,0.00,0.00,0.00,72,3.00,0.00,2.64,-999.00,0,No,No
Surface Convection Parameters,CORRINOR_FLOOR_0_0_10002,0,0.00,0.00,0.00,0,3.00,0.00,2.64,-999.00,0,No,No
Surface Convection Parameters,CORRINOR_CEILING_1_0_10053,0,0.00,0.00,0.00,0,3.00,0.00,2.64,-999.00,0,No,No
Surface Convection Parameters,CORRINOR_CEILING_1_0_0_0_0_0_HOLE_10055,114,0.00,0.00,0.00,114,3.00,0.00,2.64,-999.00,0,No,No
Surface Convection Parameters,CORRINOR_CEILING_1_0_10063,0,0.00,0.00,0.00,0,3.00,0.00,2.64,-999.00,0,No,No
Surface Convection Parameters,CORRINOR_CEILING_1_0_0_1_0_1_HOLE_10065,119,0.00,0.00,0.00,119,3.00,0.00,2.64,-999.00,0,No,No
Surface Convection Parameters,KITCHEN_PARTITION_SOUTH,0,0.00,0.00,0.00,0,3.00,0.00,4.82,-999.00,0,No,No
Surface Convection Parameters,KITCHEN_PARTITION_SOUTH_HOLE,67,0.00,0.00,0.00,67,3.00,0.00,4.82,-999.00,0,No,No
Surface Convection Parameters,KITCHEN_PARTITION_NORTH,0,0.00,0.00,0.00,0,3.00,0.00,4.82,-999.00,0,No,No
Surface Convection Parameters,KITCHEN_PARTITION_NORTH_HOLE,69,0.00,0.00,0.00,69,3.00,0.00,4.82,-999.00,0,No,No
Surface Convection Parameters,KITCHEN_PARTITION_WEST,0,0.00,0.00,0.00,0,3.00,0.00,4.82,-999.00,0,No,No
Surface Convection Parameters,KITCHEN_PARTITION_WEST_HOLE,71,0.00,0.00,0.00,71,3.00,0.00,4.82,-999.00,0,No,No
Surface Convection Parameters,KITCHEN_PARTITION_EAST,0,0.00,0.00,0.00,0,3.00,0.00,4.82,-999.00,0,No,No
Surface Convection Parameters,KITCHEN_PARTITION_EAST_HOLE,73,0.00,0.00,0.00,73,3.00,0.00,4.82,-999.00,0,No,No
Surface Convection Parameters,KITCHEN_FLOOR_0_0_10003,0,0.00,0.00,0.00,0,3.00,0.00,4.82,-999.00,0,No,No
Surface Convection Parameters,KITCHEN_CEILING_1_0_10065_HOLE,0,0.00,0.00,0.00,0,3.00,0.00,4.82,-999.00,0,No,No
Surface Convection Parameters,KITCHEN_CEILING_1_0_0_0_0_0_HOLE_10067,120,0.00,0.00,0.00,120,3.00,0.00,4.82,-999.00,0,No,No
Surface Convection Parameters,KITCHEN_CEILING_1_0_10065,0,0.00,0.00,0.00,0,3.00,0.00,4.82,-999.00,0,No,No
Surface Convection Parameters,KITCHEN_INTMASS,0,0.00,0.00,0.00,0,3.00,0.00,4.82,-999.00,0,No,No
Surface Convection Parameters,BAS_PARTITION_NORTH,0,0.00,0.00,0.00,0,3.00,9.52,3.80,0.50,0,No,No
Surface Convection Parameters,BAS_PARTITION_NORTH_HOLE,46,0.00,0.00,0.00,46,3.00,9.52,3.80,0.50,0,No,No
Surface Convection Parameters,BAS_PARTITION_SOUTH,0,0.00,0.00,0.00,0,3.00,9.52,3.80,0.50,0,No,No
Surface Convection Parameters,BAS_PARTITION_SOUTH_HOLE,47,0.00,0.00,0.00,47,3.00,9.52,3.80,0.50,0,No,No
Surface Convection Parameters,BAS_PARTITION_WEST,0,0.00,0.00,0.00,0,3.00,9.52,3.80,0.50,0,No,No
Surface Convection Parameters,BAS_PARTITION_WEST_HOLE,74,0.00,0.00,0.00,74,3.00,9.52,3.80,0.50,0,No,No
Surface Convection Parameters,BAS_WALL_2_0_0,0,164.32,100.64,4.12,0,3.00,9.52,3.80,0.50,4,No,No
Surface Convection Parameters,BAS_WALL_2_0_0_0_0_0_WIN,0,164.32,100.64,4.12,0,3.00,9.52,3.80,0.50,1,No,No
Surface Convection Parameters,BAS_WALL_2_0_0_1_0_1_WIN,0,164.32,100.64,4.12,0,3.00,9.52,3.80,0.50,2,No,No
Surface Convection Parameters,BAS_WALL_2_0_0_2_0_2_WIN,0,164.32,100.64,4.12,0,3.00,9.52,3.80,0.50,1,No,No
Surface Convection Parameters,BAS_WALL_MULL_TOPMID,0,164.32,100.64,4.12,0,3.00,9.52,3.80,0.50,4,No,No
Surface Convection Parameters,BAS_WALL_3_0_0,0,164.32,100.64,4.12,0,3.00,9.52,3.80,0.50,4,No,No
Surface Convection Parameters,BAS_WALL_4_0_0,0,164.32,100.64,4.12,0,3.00,9.52,3.80,0.50,4,No,No
Surface Convection Parameters,BAS_WALL_4_0_0_0_0_0_WIN,0,164.32,100.64,4.12,0,3.00,9.52,3.80,0.50,2,No,No
Surface Convection Parameters,BAS_WALL_4_0_0_1_0_1_WIN,0,164.32,100.64,4.12,0,3.00,9.52,3.80,0.50,1,No,No
Surface Convection Parameters,BAS_WALL_MULL_TOPNOR,0,164.32,100.64,4.12,0,3.00,9.52,3.80,0.50,4,No,No
Surface Convection Parameters,BAS_WALL_MULL_NOR,0,164.32,100.64,4.12,0,3.00,9.52,3.80,0.50,4,No,No
Surface Convection Parameters,BAS_WALL_8_0_0,0,164.32,100.64,4.12,0,3.00,9.52,3.80,0.50,4,No,No
Surface Convection Parameters,BAS_WALL_8_0_0_0_0_0_WIN,0,164.32,100.64,4.12,0,3.00,9.52,3.80,0.50,2,No,No
Surface Convection Parameters,BAS_WALL_8_0_0_1_0_1_WIN,0,164.32,100.64,4.12,0,3.00,9.52,3.80,0.50,1,No,No
Surface Convection Parameters,BAS_WALL_MULL_SOU,0,164.32,100.64,4.12,0,3.00,9.52,3.80,0.50,4,No,No
Surface Convection Parameters,BAS_WALL_MULL_TOPSOU,0,164.32,100.64,4.12,0,3.00,9.52,3.80,0.50,4,No,No
Surface Convection Parameters,BAS_WALL_9_0_0,0,164.32,100.64,4.12,0,3.00,9.52,3.80,0.50,4,No,No
Surface Convection Parameters,BAS_FLOOR_0_0_10004,0,0.00,0.00,0.00,0,3.00,9.52,3.80,0.50,0,No,No
Surface Convection Parameters,BAS_CEILING_1_0_10067,0,0.00,0.00,0.00,0,3.00,9.52,3.80,0.50,0,No,No
Surface Convection Parameters,BAS_CEILING_1_0_0_0_0_0_HOLE_10069,121,0.00,0.00,0.00,121,3.00,9.52,3.80,0.50,0,No,No
Surface Convection Parameters,BAS_INTMASS,0,0.00,0.00,0.00,0,3.00,9.52,3.80,0.50,0,No,No
Surface Convection Parameters,STAIRNCOM_PARTITION_NORTH_EAST,0,0.00,0.00,0.00,0,3.00,23.32,5.70,0.46,0,No,No
Surface Convection Parameters,STAIRNCOM_PARTITION_NORTH_EAST_HOLE,48,0.00,0.00,0.00,48,3.00,23.32,5.70,0.46,0,No,No
Surface Convection Parameters,STAIRNCOM_PARTITION_WEST,0,0.00,0.00,0.00,0,3.00,23.32,5.70,0.46,0,No,No
Surface Convection Parameters,STAIRNCOM_PARTITION_WEST_HOLE,49,0.00,0.00,0.00,49,3.00,23.32,5.70,0.46,0,No,No
Surface Convection Parameters,STAIRNCOM_PARTITION_SOUTH,0,0.00,0.00,0.00,0,3.00,23.32,5.70,0.46,0,No,No
Surface Convection Parameters,STAIRNCOM_PARTITION_SOUTH_HOLE,62,0.00,0.00,0.00,62,3.00,23.32,5.70,0.46,0,No,No
Surface Convection Parameters,STAIRNCOM_PARTITION_NORTH_WEST,0,0.00,0.00,0.00,0,3.00,23.32,5.70,0.46,0,No,No
Surface Convection Parameters,STAIRNCOM_PARTITION_NORTH_WEST_HOLE,68,0.00,0.00,0.00,68,3.00,23.32,5.70,0.46,0,No,No
Surface Convection Parameters,STAIRNCOM_WALL_2_0_0,0,164.32,100.64,4.12,0,3.00,23.32,5.70,0.46,4,No,No
Surface Convection Parameters,STAIRNCOM_WALL_2_0_0_0_0_0_WIN,0,164.32,100.64,4.12,0,3.00,23.32,5.70,0.46,1,No,No
Surface Convection Parameters,STAIRNCOM_WALL_2_0_0_1_0_1_WIN,0,164.32,100.64,4.12,0,3.00,23.32,5.70,0.46,2,No,No
Surface Convection Parameters,STAIRNCOM_WALL_2_0_0_2_0_2_WIN,0,164.32,100.64,4.12,0,3.00,23.32,5.70,0.46,1,No,No
Surface Convection Parameters,STAIRNCOM_WALL_MULL_TOPMID_EASWALL,0,164.32,100.64,4.12,0,3.00,23.32,5.70,0.46,4,No,No
Surface Convection Parameters,STAIRNCOM_WALL_3_0_0,0,164.32,100.64,4.12,0,3.00,23.32,5.70,0.46,4,No,No
Surface Convection Parameters,STAIRNCOM_WALL_4_0_0,0,164.32,100.64,4.12,0,3.00,23.32,5.70,0.46,4,No,No
Surface Convection Parameters,STAIRNCOM_WALL_4_0_0_0_0_0_WIN,0,164.32,100.64,4.12,0,3.00,23.32,5.70,0.46,2,No,No
Surface Convection Parameters,STAIRNCOM_WALL_4_0_0_1_0_1_WIN,0,164.32,100.64,4.12,0,3.00,23.32,5.70,0.46,1,No,No
Surface Convection Parameters,STAIRNCOM_WALL_MULL_TOPNOR,0,164.32,100.64,4.12,0,3.00,23.32,5.70,0.46,4,No,No
Surface Convection Parameters,STAIRNCOM_WALL_MULL_NOR,0,164.32,100.64,4.12,0,3.00,23.32,5.70,0.46,3,No,No
Surface Convection Parameters,STAIRNCOM_WALL_9_0_0,0,57.00,74.17,4.12,0,3.00,23.32,5.70,0.46,3,No,No
Surface Convection Parameters,STAIRNCOM_WALL_9_0_0_0_0_0_WIN,0,57.00,74.17,4.12,0,3.00,23.32,5.70,0.46,2,No,No
Surface Convection Parameters,STAIRNCOM_WALL_MULL_TOPWES,0,57.00,74.17,4.12,0,3.00,23.32,5.70,0.46,4,No,No
Surface Convection Parameters,STAIRNCOM_WALL_MULL_WES,0,57.00,74.17,4.12,0,3.00,23.32,5.70,0.46,3,No,No
Surface Convection Parameters,STAIRNCOM_WALL_10_0_0,0,57.00,74.17,4.12,0,3.00,23.32,5.70,0.46,3,No,No
Surface Convection Parameters,STAIRNCOM_WALL_11_0_0,0,57.00,74.17,4.12,0,3.00,23.32,5.70,0.46,4,No,No
Surface Convection Parameters,STAIRNCOM_WALL_11_0_0_0_0_0_WIN,0,57.00,74.17,4.12,0,3.00,23.32,5.70,0.46,2,No,No
Surface Convection Parameters,STAIRNCOM_WALL_11_0_0_1_0_1_WIN,0,57.00,74.17,4.12,0,3.00,23.32,5.70,0.46,1,No,No
Surface Convection Parameters,STAIRNCOM_WALL_MULL_TOPMIDWES,0,57.00,74.17,4.12,0,3.00,23.32,5.70,0.46,4,No,No
Surface Convection Parameters,STAIRNCOM_WALL_12_0_0,0,57.00,74.17,4.12,0,3.00,23.32,5.70,0.46,4,No,No
Surface Convection Parameters,STAIRNCOM_WALL_13_0_0,0,57.00,74.17,4.12,0,3.00,23.32,5.70,0.46,4,No,No
Surface Convection Parameters,STAIRNCOM_WALL_13_0_0_0_0_0_WIN,0,57.00,74.17,4.12,0,3.00,23.32,5.70,0.46,2,No,No
Surface Convection Parameters,STAIRNCOM_WALL_13_0_0_1_0_1_WIN,0,57.00,74.17,4.12,0,3.00,23.32,5.70,0.46,1,No,No
Surface Convection Parameters,STAIRNCOM_WALL_MULL_TOPMIDEAS,0,57.00,74.17,4.12,0,3.00,23.32,5.70,0.46,4,No,No
Surface Convection Parameters,STAIRNCOM_WALL_14_0_0,0,57.00,74.17,4.12,0,3.00,23.32,5.70,0.46,3,No,No
Surface Convection Parameters,STAIRNCOM_WALL_15_0_0,0,57.00,74.17,4.12,0,3.00,23.32,5.70,0.46,3,No,No
Surface Convection Parameters,STAIRNCOM_WALL_15_0_0_0_0_0_WIN,0,57.00,74.17,4.12,0,3.00,23.32,5.70,0.46,2,No,No
Surface Convection Parameters,STAIRNCOM_WALL_MULL_TOPEAS,0,57.00,74.17,4.12,0,3.00,23.32,5.70,0.46,4,No,No
Surface Convection Parameters,STAIRNCOM_WALL_MULL_EAS,0,57.00,74.17,4.12,0,3.00,23.32,5.70,0.46,4,No,No
Surface Convection Parameters,STAIRNCOM_WALL_16_0_0,0,164.32,100.64,4.12,0,3.00,23.32,5.70,0.46,4,No,No
Surface Convection Parameters,STAIRNCOM_WALL_16_0_0_0_0_0_WIN,0,164.32,100.64,4.12,0,3.00,23.32,5.70,0.46,2,No,No
Surface Convection Parameters,STAIRNCOM_WALL_16_0_0_1_0_1_WIN,0,164.32,100.64,4.12,0,3.00,23.32,5.70,0.46,2,No,No
Surface Convection Parameters,STAIRNCOM_WALL_16_0_0_2_0_2_WIN,0,164.32,100.64,4.12,0,3.00,23.32,5.70,0.46,1,No,No
Surface Convection Parameters,STAIRNCOM_WALL_MULL_TOPSOU,0,164.32,100.64,4.12,0,3.00,23.32,5.70,0.46,4,No,No
Surface Convection Parameters,STAIRNCOM_WALL_MULL_SOU,0,164.32,100.64,4.12,0,3.00,23.32,5.70,0.46,4,No,No
Surface Convection Parameters,STAIRNCOM_WALL_17_0_0,0,164.32,100.64,4.12,0,3.00,23.32,5.70,0.46,3,No,No
Surface Convection Parameters,STAIRNCOM_FLOOR_0_0_10005,0,0.00,0.00,0.00,0,3.00,23.32,5.70,0.46,0,No,No
Surface Convection Parameters,STAIRNCOM_CEILING_1_0_10055,0,0.00,0.00,0.00,0,3.00,23.32,5.70,0.46,0,No,No
Surface Convection Parameters,STAIRNCOM_CEILING_1_0_0_0_0_0_HOLE_10057,115,0.00,0.00,0.00,115,3.00,23.32,5.70,0.46,0,No,No
Surface Convection Parameters,STAIRNCOM_INTMASS,0,0.00,0.00,0.00,0,3.00,23.32,5.70,0.46,0,No,No
Surface Convection Parameters,CORRISOU_PARTITION_WEILI,0,0.00,0.00,0.00,0,3.00,0.00,2.92,-999.00,0,No,No
Surface Convection Parameters,CORRISOU_PARTITION_WEILI_HOLE,56,0.00,0.00,0.00,56,3.00,0.00,2.92,-999.00,0,No,No
Surface Convection Parameters,CORRISOU_PARTITION_ZHIANG,0,0.00,0.00,0.00,0,3.00,0.00,2.92,-999.00,0,No,No
Surface Convection Parameters,CORRISOU_PARTITION_ZHIANG_HOLE,2,0.00,0.00,0.00,2,3.00,0.00,2.92,-999.00,0,No,No
Surface Convection Parameters,CORRISOU_PARTITION_NINA,0,0.00,0.00,0.00,0,3.00,0.00,2.92,-999.00,0,No,No
Surface Convection Parameters,CORRISOU_PARTITION_NINA_HOLE,6,0.00,0.00,0.00,6,3.00,0.00,2.92,-999.00,0,No,No
Surface Convection Parameters,CORRISOU_PARTITION_OMER,0,0.00,0.00,0.00,0,3.00,0.00,2.92,-999.00,0,No,No
Surface Convection Parameters,CORRISOU_PARTITION_OMER_HOLE,10,0.00,0.00,0.00,10,3.00,0.00,2.92,-999.00,0,No,No
Surface Convection Parameters,CORRISOU_PARTITION_SMALLCONF,0,0.00,0.00,0.00,0,3.00,0.00,2.92,-999.00,0,No,No
Surface Convection Parameters,CORRISOU_PARTITION_SMALLCONF_HOLE,12,0.00,0.00,0.00,12,3.00,0.00,2.92,-999.00,0,No,No
Surface Convection Parameters,CORRISOU_PARTITION_CHENLU,0,0.00,0.00,0.00,0,3.00,0.00,2.92,-999.00,0,No,No
Surface Convection Parameters,CORRISOU_PARTITION_CHENLU_HOLE,18,0.00,0.00,0.00,18,3.00,0.00,2.92,-999.00,0,No,No
Surface Convection Parameters,CORRISOU_PARTITION_VIVIAN,0,0.00,0.00,0.00,0,3.00,0.00,2.92,-999.00,0,No,No
Surface Convection Parameters,CORRISOU_PARTITION_VIVIAN_HOLE,20,0.00,0.00,0.00,20,3.00,0.00,2.92,-999.00,0,No,No
Surface Convection Parameters,CORRISOU_PARTITION_JAMES,0,0.00,0.00,0.00,0,3.00,0.00,2.92,-999.00,0,No,No
Surface Convection Parameters,CORRISOU_PARTITION_JAMES_HOLE,26,0.00,0.00,0.00,26,3.00,0.00,2.92,-999.00,0,No,No
Surface Convection Parameters,CORRISOU_PARTITION_NORTH,0,0.00,0.00,0.00,0,3.00,0.00,2.92,-999.00,0,No,No
Surface Convection Parameters,CORRISOU_PARTITION_NORTH_HOLE,52,0.00,0.00,0.00,52,3.00,0.00,2.92,-999.00,0,No,No
Surface Convection Parameters,CORRISOU_PARTITION_BAPP,0,0.00,0.00,0.00,0,3.00,0.00,2.92,-999.00,0,No,No
Surface Convection Parameters,CORRISOU_PARTITION_BAPP_HOLE,58,0.00,0.00,0.00,58,3.00,0.00,2.92,-999.00,0,No,No
Surface Convection Parameters,CORRISOU_PARTITION_YUJIE,0,0.00,0.00,0.00,0,3.00,0.00,2.92,-999.00,0,No,No
Surface Convection Parameters,CORRISOU_PARTITION_YUJIE_HOLE,66,0.00,0.00,0.00,66,3.00,0.00,2.92,-999.00,0,No,No
Surface Convection Parameters,CORRISOU_PARTITION_9_0_0,0,0.00,0.00,0.00,0,3.00,0.00,2.92,-999.00,0,No,No
Surface Convection Parameters,CORRISOU_FLOOR_0_0_10006,0,0.00,0.00,0.00,0,3.00,0.00,2.92,-999.00,0,No,No
Surface Convection Parameters,CORRISOU_CEILING_1_0_10024,0,0.00,0.00,0.00,0,3.00,0.00,2.92,-999.00,0,No,No
Surface Convection Parameters,CORRISOU_CEILING_1_0_0_0_0_0_HOLE_10026,100,0.00,0.00,0.00,100,3.00,0.00,2.92,-999.00,0,No,No
Surface Convection Parameters,CORRISOU_CEILING_1_0_10029,0,0.00,0.00,0.00,0,3.00,0.00,2.92,-999.00,0,No,No
Surface Convection Parameters,CORRISOU_CEILING_1_0_0_1_0_1_HOLE_10031,102,0.00,0.00,0.00,102,3.00,0.00,2.92,-999.00,0,No,No
Surface Convection Parameters,CORRISOU_CEILING_1_0_10035,0,0.00,0.00,0.00,0,3.00,0.00,2.92,-999.00,0,No,No
Surface Convection Parameters,CORRISOU_CEILING_1_0_0_2_0_2_HOLE_10037,105,0.00,0.00,0.00,105,3.00,0.00,2.92,-999.00,0,No,No
Surface Convection Parameters,CORRISOU_CEILING_1_0_10041,0,0.00,0.00,0.00,0,3.00,0.00,2.92,-999.00,0,No,No
Surface Convection Parameters,CORRISOU_CEILING_1_0_0_3_0_3_HOLE_10043,108,0.00,0.00,0.00,108,3.00,0.00,2.92,-999.00,0,No,No
Surface Convection Parameters,CORRISOU_CEILING_1_0_10047,0,0.00,0.00,0.00,0,3.00,0.00,2.92,-999.00,0,No,No
Surface Convection Parameters,CORRISOU_CEILING_1_0_0_4_0_4_HOLE_10049,111,0.00,0.00,0.00,111,3.00,0.00,2.92,-999.00,0,No,No
Surface Convection Parameters,YUJIE_PARTITION_NORTH,0,0.00,0.00,0.00,0,3.00,9.34,3.77,0.51,0,No,No
Surface Convection Parameters,YUJIE_PARTITION_NORTH_HOLE,61,0.00,0.00,0.00,61,3.00,9.34,3.77,0.51,0,No,No
Surface Convection Parameters,YUJIE_PARTITION_SOUTH,0,0.00,0.00,0.00,0,3.00,9.34,3.77,0.51,0,No,No
Surface Convection Parameters,YUJIE_PARTITION_SOUTH_HOLE,63,0.00,0.00,0.00,63,3.00,9.34,3.77,0.51,0,No,No
Surface Convection Parameters,YUJIE_PARTITION_WEST,0,0.00,0.00,0.00,0,3.00,9.34,3.77,0.51,0,No,No
Surface Convection Parameters,YUJIE_PARTITION_WEST_HOLE,65,0.00,0.00,0.00,65,3.00,9.34,3.77,0.51,0,No,No
Surface Convection Parameters,OFF-YUJIE_WALL_2_0_0,0,164.32,100.64,4.12,0,3.00,9.34,3.77,0.51,4,No,No
Surface Convection Parameters,OFF-YUJIE_WALL_2_0_0_0_0_0_WIN,0,164.32,100.64,4.12,0,3.00,9.34,3.77,0.51,5,No,No
Surface Convection Parameters,OFF-YUJIE_WALL_2_0_0_1_0_1_WIN,0,164.32,100.64,4.12,0,3.00,9.34,3.77,0.51,5,No,No
Surface Convection Parameters,OFF-YUJIE_WALL_2_0_0_2_0_2_WIN,0,164.32,100.64,4.12,0,3.00,9.34,3.77,0.51,5,No,No
Surface Convection Parameters,OFF-YUJIE_WALL_MULL_TOPMID,0,164.32,100.64,4.12,0,3.00,9.34,3.77,0.51,4,No,No
Surface Convection Parameters,OFF-YUJIE_WALL_3_0_0,0,164.32,100.64,4.12,0,3.00,9.34,3.77,0.51,4,No,No
Surface Convection Parameters,OFF-YUJIE_WALL_4_0_0,0,164.32,100.64,4.12,0,3.00,9.34,3.77,0.51,3,No,No
Surface Convection Parameters,OFF-YUJIE_WALL_4_0_0_0_0_0_WIN,0,164.32,100.64,4.12,0,3.00,9.34,3.77,0.51,5,No,No
Surface Convection Parameters,OFF-YUJIE_WALL_MULL_TOPNOR,0,164.32,100.64,4.12,0,3.00,9.34,3.77,0.51,4,No,No
Surface Convection Parameters,OFF-YUJIE_WALL_MULL_NOR,0,164.32,100.64,4.12,0,3.00,9.34,3.77,0.51,3,No,No
Surface Convection Parameters,OFF-YUJIE_WALL_8_0_0,0,164.32,100.64,4.12,0,3.00,9.34,3.77,0.51,4,No,No
Surface Convection Parameters,OFF-YUJIE_WALL_8_0_0_0_0_0_WIN,0,164.32,100.64,4.12,0,3.00,9.34,3.77,0.51,5,No,No
Surface Convection Parameters,OFF-YUJIE_WALL_8_0_0_1_0_1_WIN,0,164.32,100.64,4.12,0,3.00,9.34,3.77,0.51,5,No,No
Surface Convection Parameters,OFF-YUJIE_WALL_MULL_TOPSOU,0,164.32,100.64,4.12,0,3.00,9.34,3.77,0.51,4,No,No
Surface Convection Parameters,OFF-YUJIE_WALL_MULL_SOU,0,164.32,100.64,4.12,0,3.00,9.34,3.77,0.51,4,No,No
Surface Convection Parameters,OFF-YUJIE_WALL_9_0_0,0,164.32,100.64,4.12,0,3.00,9.34,3.77,0.51,3,No,No
Surface Convection Parameters,OFF-YUJIE_FLOOR_0_0_10007,0,0.00,0.00,0.00,0,3.00,9.34,3.77,0.51,0,No,No
Surface Convection Parameters,OFF-YUJIE_CEILING_1_0_10049,0,0.00,0.00,0.00,0,3.00,9.34,3.77,0.51,0,No,No
Surface Convection Parameters,OFF-YUJIE_CEILING_1_0_0_0_0_0_HOLE_10051,112,0.00,0.00,0.00,112,3.00,9.34,3.77,0.51,0,No,No
[...]
Frame/Divider_Surface,FRAMEDIVIDER_H0V1_1_3,Frame,LARGECONF0_WALL_4_0_0_1_0_1_WIN,Window5 Detailed Fenestration,,,,,0.23,0.23,*,N/A,N/A,5.00E-002,N/A
Frame/Divider_Surface,FRAMEDIVIDER_H0V1_1_3,Divider:DividedLite,LARGECONF0_WALL_4_0_0_1_0_1_WIN,,,,,,4.66E-002,4.66E-002,*,N/A,N/A,0.10,N/A
HeatTransfer_Surface,LARGECONF0_WALL_MULL_TOPNOR,Wall,,CTF - ConductionTransferFunction,,0.353,0.335,,0.35,0.35,0.35,285.00,90.00,1.76,0.20,0.00,ExternalEnvironment,DOE-2,ASHRAETARP,SunExposed,WindExposed,0.50,0.50,0.59,0.41,4
HeatTransfer_Surface,LARGECONF0_WALL_MULL_NOR,Wall,,CTF - ConductionTransferFunction,,15.995,4.712,,0.42,0.42,0.42,285.00,90.00,0.14,3.00,0.00,ExternalEnvironment,DOE-2,ASHRAETARP,SunExposed,WindExposed,0.50,0.50,0.53,0.47,4
HeatTransfer_Surface,LARGECONF0_WALL_5_0_0,Wall,,CTF - ConductionTransferFunction,,15.995,4.712,,0.30,0.30,0.30,285.00,90.00,0.10,3.00,0.00,ExternalEnvironment,DOE-2,ASHRAETARP,SunExposed,WindExposed,0.50,0.50,0.53,0.47,4
HeatTransfer_Surface,LARGECONF0_WALL_6_0_0,Wall,,CTF - ConductionTransferFunction,,0.353,0.335,,2.32E-002,2.80,0.57,285.00,90.00,1.00,2.80,0.00,ExternalEnvironment,DOE-2,ASHRAETARP,SunExposed,WindExposed,0.50,0.50,0.52,0.48,4
HeatTransfer_Surface,LARGECONF0_WALL_6_0_0_0_0_0_WIN,Window,LARGECONF0_WALL_6_0_0,Window5 Detailed Fenestration,,N/A,1.793,No,0.79,0.89,0.89,285.00,90.00,0.90,1.00,0.00,ExternalEnvironment,DOE-2,ASHRAETARP,SunExposed,WindExposed,0.50,0.50,0.51,0.49,4
Frame/Divider_Surface,FRAMEDIVIDER_H0V1_1_3,Frame,LARGECONF0_WALL_6_0_0_0_0_0_WIN,Window5 Detailed Fenestration,,,,,0.20,0.20,*,N/A,N/A,5.00E-002,N/A
Frame/Divider_Surface,FRAMEDIVIDER_H0V1_1_3,Divider:DividedLite,LARGECONF0_WALL_6_0_0_0_0_0_WIN,,,,,,9.96E-002,9.96E-002,*,N/A,N/A,0.10,N/A
HeatTransfer_Surface,LARGECONF0_WALL_6_0_0_1_0_1_WIN,Window,LARGECONF0_WALL_6_0_0,Window5 Detailed Fenestration,,N/A,1.793,No,0.92,0.92,0.92,285.00,90.00,0.90,1.03,0.00,ExternalEnvironment,DOE-2,ASHRAETARP,SunExposed,WindExposed,0.50,0.50,0.54,0.46,4
Frame/Divider_Surface,FRAMEDIVIDER_H0V0_2,Frame,LARGECONF0_WALL_6_0_0_1_0_1_WIN,Window5 Detailed Fenestration,,,,,0.20,0.20,*,N/A,N/A,5.00E-002,N/A
HeatTransfer_Surface,LARGECONF0_WALL_6_0_0_2_0_2_WIN,Window,LARGECONF0_WALL_6_0_0,Window5 Detailed Fenestration,,N/A,1.793,No,0.37,0.42,0.42,285.00,90.00,0.90,0.47,0.00,ExternalEnvironment,DOE-2,ASHRAETARP,SunExposed,WindExposed,0.50,0.50,0.51,0.49,4
Frame/Divider_Surface,FRAMEDIVIDER_H0V1_1_3,Frame,LARGECONF0_WALL_6_0_0_2_0_2_WIN,Window5 Detailed Fenestration,,,,,0.15,0.15,*,N/A,N/A,5.00E-002,N/A
Frame/Divider_Surface,FRAMEDIVIDER_H0V1_1_3,Divider:DividedLite,LARGECONF0_WALL_6_0_0_2_0_2_WIN,,,,,,4.66E-002,4.66E-002,*,N/A,N/A,0.10,N/A
HeatTransfer_Surface,LARGECONF0_WALL_MULL_TOPMID,Wall,,CTF - ConductionTransferFunction,,0.353,0.335,,0.20,0.20,0.20,285.00,90.00,1.00,0.20,0.00,ExternalEnvironment,DOE-2,ASHRAETARP,SunExposed,WindExposed,0.50,0.50,0.59,0.41,4
HeatTransfer_Surface,LARGECONF0_WALL_7_0_0,Wall,,CTF - ConductionTransferFunction,,15.995,4.712,,0.30,0.30,0.30,285.00,90.00,1.00E-001,3.00,0.00,ExternalEnvironment,DOE-2,ASHRAETARP,SunExposed,WindExposed,0.50,0.50,0.53,0.47,4
HeatTransfer_Surface,LARGECONF0_WALL_8_0_0,Wall,,CTF - ConductionTransferFunction,,0.353,0.335,,1.89,4.93,2.40,285.00,90.00,1.76,2.80,0.00,ExternalEnvironment,DOE-2,ASHRAETARP,SunExposed,WindExposed,0.50,0.50,0.51,0.49,4
HeatTransfer_Surface,LARGECONF0_WALL_8_0_0_0_0_0_WIN,Window,LARGECONF0_WALL_8_0_0,Window5 Detailed Fenestration,,N/A,1.793,No,1.64,1.74,1.74,285.00,90.00,1.70,1.03,0.00,ExternalEnvironment,DOE-2,ASHRAETARP,SunExposed,WindExposed,0.50,0.50,0.54,0.46,4
Frame/Divider_Surface,FRAMEDIVIDER_H0V1_1_3,Frame,LARGECONF0_WALL_8_0_0_0_0_0_WIN,Window5 Detailed Fenestration,,,,,0.28,0.28,*,N/A,N/A,5.00E-002,N/A
Frame/Divider_Surface,FRAMEDIVIDER_H0V1_1_3,Divider:DividedLite,LARGECONF0_WALL_8_0_0_0_0_0_WIN,,,,,,0.10,0.10,*,N/A,N/A,0.10,N/A
HeatTransfer_Surface,LARGECONF0_WALL_8_0_0_1_0_1_WIN,Window,LARGECONF0_WALL_8_0_0,Window5 Detailed Fenestration,,N/A,1.793,No,0.74,0.79,0.79,285.00,90.00,1.70,0.47,0.00,ExternalEnvironment,DOE-2,ASHRAETARP,SunExposed,WindExposed,0.50,0.50,0.51,0.49,4
Frame/Divider_Surface,FRAMEDIVIDER_H0V1_1_3,Frame,LARGECONF0_WALL_8_0_0_1_0_1_WIN,Window5 Detailed Fenestration,,,,,0.23,0.23,*,N/A,N/A,5.00E-002,N/A
Frame/Divider_Surface,FRAMEDIVIDER_H0V1_1_3,Divider:DividedLite,LARGECONF0_WALL_8_0_0_1_0_1_WIN,,,,,,4.66E-002,4.66E-002,*,N/A,N/A,0.10,N/A
HeatTransfer_Surface,LARGECONF0_WALL_MULL_TOPSOU,Wall,,CTF - ConductionTransferFunction,,0.353,0.335,,0.35,0.35,0.35,285.00,90.00,1.76,0.20,0.00,ExternalEnvironment,DOE-2,ASHRAETARP,SunExposed,WindExposed,0.50,0.50,0.59,0.41,4
HeatTransfer_Surface,LARGECONF0_WALL_MULL_SOU,Wall,,CTF - ConductionTransferFunction,,15.995,4.712,,0.42,0.42,0.42,285.00,90.00,0.14,3.00,0.00,ExternalEnvironment,DOE-2,ASHRAETARP,SunExposed,WindExposed,0.50,0.50,0.53,0.47,4
HeatTransfer_Surface,LARGECONF0_FLOOR_0_0_10021,Floor,,CTF - ConductionTransferFunction,,22.600,3.481,,67.40,67.40,67.40,15.00,180.00,13.47,5.00,0.00,UNDERFLOOR_VOID_SPACE_CEILING_1_19_0,Other/Same Surface Int Conv,ASHRAETARP,NoSun,NoWind,0.00,0.00,1.00,0.00,4
HeatTransfer_Surface,LARGECONF0_CEILING_1_0_10071,Roof,,CTF - ConductionTransferFunction,,11.200,3.601,,0.11,67.35,0.11,195.00,0.00,13.47,5.00,0.00,ROOFN2_FLOOR_0_0_0,Other/Same Surface Int Conv,ASHRAETARP,NoSun,NoWind,0.00,1.00,0.00,1.00,4
HeatTransfer_Surface,LARGECONF0_CEILING_1_0_0_0_0_0_HOLE_10073,Door,LARGECONF0_CEILING_1_0_10071,CTF - ConductionTransferFunction,,100.000,100.000,,67.24,67.24,67.24,195.00,0.00,13.46,4.99,0.00,ROOFN2_FLOOR_0_0_0_0_0_0_HOLE,Other/Same Surface Int Conv,User Supplied Value,NoSun,NoWind,0.00,1.00,0.00,1.00,4
HeatTransfer_Surface,LARGECONF0_INTMASS,Internal Mass,,CTF - ConductionTransferFunction,,22.600,22.600,,60.12,60.12,60.12,0.00,90.00,60.12,1.00,0.00,LARGECONF0_INTMASS,Other/Same Surface Int Conv,ASHRAETARP,NoSun,NoWind,0.00,0.50,1.00,0.00,0
Zone_Surfaces,OFF-SUREKHA,   27
HeatTransfer_Surface,SUREKHA_PARTITION_WEST,Wall,,CTF - ConductionTransferFunction,,2.857,2.001,,3.00E-003,15.00,3.00E-003,105.00,90.00,5.00,3.00,0.00,LARGECONF0_PARTITION_EAST,Other/Same Surface Int Conv,ASHRAETARP,NoSun,NoWind,0.00,0.50,0.50,0.50,4
HeatTransfer_Surface,SUREKHA_PARTITION_WEST_HOLE,Door,SUREKHA_PARTITION_WEST,CTF - ConductionTransferFunction,,100.000,100.000,,15.00,15.00,15.00,105.00,90.00,5.00,3.00,0.00,LARGECONF0_PARTITION_EAST_HOLE,Other/Same Surface Int Conv,User Supplied Value,NoSun,NoWind,0.50,0.50,0.50,0.50,4
HeatTransfer_Surface,SUREKHA_PARTITION_NORTH,Wall,,CTF - ConductionTransferFunction,,2.857,2.001,,3.00E-003,13.05,3.00E-003,15.00,90.00,4.35,3.00,0.00,ANNIE_PARTITION_SOUTH,Other/Same Surface Int Conv,ASHRAETARP,NoSun,NoWind,0.00,0.50,0.50,0.50,4
HeatTransfer_Surface,SUREKHA_PARTITION_NORTH_HOLE,Door,SUREKHA_PARTITION_NORTH,CTF - ConductionTransferFunction,,100.000,100.000,,13.05,13.05,13.05,15.00,90.00,4.35,3.00,0.00,ANNIE_PARTITION_SOUTH_HOLE,Other/Same Surface Int Conv,User Supplied Value,NoSun,NoWind,0.50,0.50,0.50,0.50,4
HeatTransfer_Surface,SUREKHA_PARTITION_SOUTH,Wall,,CTF - ConductionTransferFunction,,2.857,2.001,,3.00E-003,13.05,3.00E-003,15.00,90.00,4.35,3.00,0.00,BAS_PARTITION_NORTH,Other/Same Surface Int Conv,ASHRAETARP,NoSun,NoWind,0.00,0.50,0.50,0.50,4
HeatTransfer_Surface,SUREKHA_PARTITION_SOUTH_HOLE,Door,SUREKHA_PARTITION_SOUTH,CTF - ConductionTransferFunction,,100.000,100.000,,13.05,13.05,13.05,15.00,90.00,4.35,3.00,0.00,BAS_PARTITION_NORTH_HOLE,Other/Same Surface Int Conv,User Supplied Value,NoSun,NoWind,0.50,0.50,0.50,0.50,4
HeatTransfer_Surface,OFF-SUREKHA_WALL_2_0_0,Wall,,CTF - ConductionTransferFunction,,0.353,0.335,,2.56E-002,3.36,0.63,105.00,90.00,1.20,2.80,0.00,ExternalEnvironment,DOE-2,ASHRAETARP,SunExposed,WindExposed,0.50,0.50,0.52,0.48,4
HeatTransfer_Surface,OFF-SUREKHA_WALL_2_0_0_0_0_0_WIN,Window,OFF-SUREKHA_WALL_2_0_0,Window5 Detailed Fenestration,,N/A,1.793,No,1.09,1.09,1.09,105.00,90.00,1.10,1.00,0.00,ExternalEnvironment,DOE-2,ASHRAETARP,SunExposed,WindExposed,0.50,0.50,0.51,0.49,4
Frame/Divider_Surface,FRAMEDIVIDER_H0V0_2,Frame,OFF-SUREKHA_WALL_2_0_0_0_0_0_WIN,Window5 Detailed Fenestration,,,,,0.22,0.22,*,N/A,N/A,5.00E-002,N/A
HeatTransfer_Surface,OFF-SUREKHA_WALL_2_0_0_1_0_1_WIN,Window,OFF-SUREKHA_WALL_2_0_0,Window5 Detailed Fenestration,,N/A,1.793,No,1.12,1.12,1.12,105.00,90.00,1.10,1.03,0.00,ExternalEnvironment,DOE-2,ASHRAETARP,SunExposed,WindExposed,0.50,0.50,0.54,0.46,4
Frame/Divider_Surface,FRAMEDIVIDER_H0V0_2,Frame,OFF-SUREKHA_WALL_2_0_0_1_0_1_WIN,Window5 Detailed Fenestration,,,,,0.22,0.22,*,N/A,N/A,5.00E-002,N/A
HeatTransfer_Surface,OFF-SUREKHA_WALL_2_0_0_2_0_2_WIN,Window,OFF-SUREKHA_WALL_2_0_0,Window5 Detailed Fenestration,,N/A,1.793,No,0.51,0.51,0.51,105.00,90.00,1.10,0.47,0.00,ExternalEnvironment,DOE-2,ASHRAETARP,SunExposed,WindExposed,0.50,0.50,0.51,0.49,4
Frame/Divider_Surface,FRAMEDIVIDER_H0V0_2,Frame,OFF-SUREKHA_WALL_2_0_0_2_0_2_WIN,Window5 Detailed Fenestration,,,,,0.17,0.17,*,N/A,N/A,5.00E-002,N/A
HeatTransfer_Surface,OFF-SUREKHA_WALL_MULL_TOPMID,Wall,,CTF - ConductionTransferFunction,,0.353,0.335,,0.24,0.24,0.24,105.00,90.00,1.20,0.20,0.00,ExternalEnvironment,DOE-2,ASHRAETARP,SunExposed,WindExposed,0.50,0.50,0.59,0.41,4
HeatTransfer_Surface,OFF-SUREKHA_WALL_3_0_0,Wall,,CTF - ConductionTransferFunction,,15.995,4.712,,0.30,0.30,0.30,105.00,90.00,0.10,3.00,0.00,ExternalEnvironment,DOE-2,ASHRAETARP,SunExposed,WindExposed,0.50,0.50,0.53,0.47,4
HeatTransfer_Surface,OFF-SUREKHA_WALL_4_0_0,Wall,,CTF - ConductionTransferFunction,,0.353,0.335,,1.79,4.65,2.27,105.00,90.00,1.66,2.80,0.00,ExternalEnvironment,DOE-2,ASHRAETARP,SunExposed,WindExposed,0.50,0.50,0.51,0.49,4
HeatTransfer_Surface,OFF-SUREKHA_WALL_4_0_0_0_0_0_WIN,Window,OFF-SUREKHA_WALL_4_0_0,Window5 Detailed Fenestration,,N/A,1.793,No,1.53,1.64,1.64,105.00,90.00,1.59,1.03,0.00,ExternalEnvironment,DOE-2,ASHRAETARP,SunExposed,WindExposed,0.50,0.50,0.54,0.46,4
Frame/Divider_Surface,FRAMEDIVIDER_H0V1_1_3,Frame,OFF-SUREKHA_WALL_4_0_0_0_0_0_WIN,Window5 Detailed Fenestration,,,,,0.27,0.27,*,N/A,N/A,5.00E-002,N/A
Frame/Divider_Surface,FRAMEDIVIDER_H0V1_1_3,Divider:DividedLite,OFF-SUREKHA_WALL_4_0_0_0_0_0_WIN,,,,,,0.10,0.10,*,N/A,N/A,0.10,N/A
HeatTransfer_Surface,OFF-SUREKHA_WALL_4_0_0_1_0_1_WIN,Window,OFF-SUREKHA_WALL_4_0_0,Window5 Detailed Fenestration,,N/A,1.793,No,0.70,0.74,0.74,105.00,90.00,1.59,0.47,0.00,ExternalEnvironment,DOE-2,ASHRAETARP,SunExposed,WindExposed,0.50,0.50,0.51,0.49,4
Frame/Divider_Surface,FRAMEDIVIDER_H0V1_1_3,Frame,OFF-SUREKHA_WALL_4_0_0_1_0_1_WIN,Window5 Detailed Fenestration,,,,,0.22,0.22,*,N/A,N/A,5.00E-002,N/A
Frame/Divider_Surface,FRAMEDIVIDER_H0V1_1_3,Divider:DividedLite,OFF-SUREKHA_WALL_4_0_0_1_0_1_WIN,,,,,,4.66E-002,4.66E-002,*,N/A,N/A,0.10,N/A
HeatTransfer_Surface,OFF-SUREKHA_WALL_MULL_TOPNOR,Wall,,CTF - ConductionTransferFunction,,0.353,0.335,,0.33,0.33,0.33,105.00,90.00,1.66,0.20,0.00,ExternalEnvironment,DOE-2,ASHRAETARP,SunExposed,WindExposed,0.50,0.50,0.59,0.41,4
HeatTransfer_Surface,OFF-SUREKHA_WALL_MULL_NOR,Wall,,CTF - ConductionTransferFunction,,15.995,4.712,,0.42,0.42,0.42,105.00,90.00,0.14,3.00,0.00,ExternalEnvironment,DOE-2,ASHRAETARP,SunExposed,WindExposed,0.50,0.50,0.53,0.47,4
HeatTransfer_Surface,OFF-SUREKHA_WALL_8_0_0,Wall,,CTF - ConductionTransferFunction,,0.353,0.335,,1.78,4.65,2.27,105.00,90.00,1.66,2.80,0.00,ExternalEnvironment,DOE-2,ASHRAETARP,SunExposed,WindExposed,0.50,0.50,0.51,0.49,4
HeatTransfer_Surface,OFF-SUREKHA_WALL_8_0_0_0_0_0_WIN,Window,OFF-SUREKHA_WALL_8_0_0,Window5 Detailed Fenestration,,N/A,1.793,No,1.54,1.64,1.64,105.00,90.00,1.60,1.03,0.00,ExternalEnvironment,DOE-2,ASHRAETARP,SunExposed,WindExposed,0.50,0.50,0.54,0.46,4
Frame/Divider_Surface,FRAMEDIVIDER_H0V1_1_3,Frame,OFF-SUREKHA_WALL_8_0_0_0_0_0_WIN,Window5 Detailed Fenestration,,,,,0.27,0.27,*,N/A,N/A,5.00E-002,N/A
Frame/Divider_Surface,FRAMEDIVIDER_H0V1_1_3,Divider:DividedLite,OFF-SUREKHA_WALL_8_0_0_0_0_0_WIN,,,,,,0.10,0.10,*,N/A,N/A,0.10,N/A
HeatTransfer_Surface,OFF-SUREKHA_WALL_8_0_0_1_0_1_WIN,Window,OFF-SUREKHA_WALL_8_0_0,Window5 Detailed Fenestration,,N/A,1.793,No,0.70,0.74,0.74,105.00,90.00,1.60,0.47,0.00,ExternalEnvironment,DOE-2,ASHRAETARP,SunExposed,WindExposed,0.50,0.50,0.51,0.49,4
Frame/Divider_Surface,FRAMEDIVIDER_H0V1_1_3,Frame,OFF-SUREKHA_WALL_8_0_0_1_0_1_WIN,Window5 Detailed Fenestration,,,,,0.22,0.22,*,N/A,N/A,5.00E-002,N/A
Frame/Divider_Surface,FRAMEDIVIDER_H0V1_1_3,Divider:DividedLite,OFF-SUREKHA_WALL_8_0_0_1_0_1_WIN,,,,,,4.66E-002,4.66E-002,*,N/A,N/A,0.10,N/A
HeatTransfer_Surface,OFF-SUREKHA_WALL_MULL_TOPSOU,Wall,,CTF - ConductionTransferFunction,,0.353,0.335,,0.33,0.33,0.33,105.00,90.00,1.66,0.20,0.00,ExternalEnvironment,DOE-2,ASHRAETARP,SunExposed,WindExposed,0.50,0.50,0.59,0.41,4
HeatTransfer_Surface,OFF-SUREKHA_WALL_MULL_SOU,Wall,,CTF - ConductionTransferFunction,,15.995,4.712,,0.42,0.42,0.42,105.00,90.00,0.14,3.00,0.00,ExternalEnvironment,DOE-2,ASHRAETARP,SunExposed,WindExposed,0.50,0.50,0.53,0.47,4
HeatTransfer_Surface,OFF-SUREKHA_WALL_9_0_0,Wall,,CTF - ConductionTransferFunction,,15.995,4.712,,0.30,0.30,0.30,105.00,90.00,0.10,3.00,0.00,ExternalEnvironment,DOE-2,ASHRAETARP,SunExposed,WindExposed,0.50,0.50,0.53,0.47,4
HeatTransfer_Surface,OFF-SUREKHA_FLOOR_0_0_10022,Floor,,CTF - ConductionTransferFunction,,22.600,3.481,,21.77,21.77,21.77,15.00,180.00,4.35,5.00,0.00,UNDERFLOOR_VOID_SPACE_CEILING_1_20_0,Other/Same Surface Int Conv,ASHRAETARP,NoSun,NoWind,0.00,0.00,1.00,0.00,4
HeatTransfer_Surface,OFF-SUREKHA_CEILING_1_0_10073,Roof,,CTF - ConductionTransferFunction,,11.200,3.601,,5.61E-002,21.75,5.61E-002,195.00,0.00,4.35,5.00,0.00,ROOFN2_FLOOR_0_1_0,Other/Same Surface Int Conv,ASHRAETARP,NoSun,NoWind,0.00,1.00,0.00,1.00,4
HeatTransfer_Surface,OFF-SUREKHA_CEILING_1_0_0_0_0_0_HOLE_10075,Door,OFF-SUREKHA_CEILING_1_0_10073,CTF - ConductionTransferFunction,,100.000,100.000,,21.70,21.70,21.70,195.00,0.00,4.34,4.99,0.00,ROOFN2_FLOOR_0_1_0_0_0_1_HOLE,Other/Same Surface Int Conv,User Supplied Value,NoSun,NoWind,0.00,1.00,0.00,1.00,4
HeatTransfer_Surface,SUREKHA_INTMASS,Internal Mass,,CTF - ConductionTransferFunction,,22.600,22.600,,60.12,60.12,60.12,0.00,90.00,60.12,1.00,0.00,SUREKHA_INTMASS,Other/Same Surface Int Conv,ASHRAETARP,NoSun,NoWind,0.00,0.50,1.00,0.00,0
! <Environment>,Environment Name,Environment Type, Start Date, End Date, Start DayOfWeek, Duration {#days}, Source:Start DayOfWeek,  Use Daylight Saving, Use Holidays, Apply Weekend Holiday Rule,  Use Rain Values, Use Snow Values
! <Environment:Special Days>, Special Day Name, Special Day Type, Source, Start Date, Duration {#days}
! <Environment:Daylight Saving>, Daylight Saving Indicator, Source, Start Date, End Date
! <Environment:WarmupDays>, NumberofWarmupDays
Environment,WHOLEYEAR,WeatherFileRunPeriod,01/01,03/31,Sunday,90,Use RunPeriod Specified Day,No,No,Yes,Yes,Yes
Environment:Daylight Saving,Yes,InputFile,03/12,11/05
Environment:WarmupDays, 25
! <Warmup Convergence Information>,Zone Name,Environment Type/Name,Average Warmup Temperature Difference {deltaC},Std Dev Warmup Temperature Difference {deltaC},Max Temperature Pass/Fail Convergence,Min Temperature Pass/Fail Convergence,Average Warmup Load Difference {W},Std Dev Warmup Load Difference {W},Heating Load Pass/Fail Convergence,Cooling Load Pass/Fail Convergence
 Warmup Convergence Information,UNDERFLOOR_VOID_SPACE,RunPeriod: WHOLEYEAR,5.7288577477E-002,3.9079986127E-002,Pass,Pass,0.0000000000,0.0000000000,Pass,Pass
 Warmup Convergence Information,ROOFS1,RunPeriod: WHOLEYEAR,0.2376220025,0.1597829239,Pass,Pass,0.0000000000,0.0000000000,Pass,Pass
 Warmup Convergence Information,ROOFS2,RunPeriod: WHOLEYEAR,0.2014072271,0.1337321150,Pass,Pass,0.0000000000,0.0000000000,Pass,Pass
 Warmup Convergence Information,ROOFS3,RunPeriod: WHOLEYEAR,0.2004907980,0.1329714617,Pass,Pass,0.0000000000,0.0000000000,Pass,Pass
 Warmup Convergence Information,ROOFS0,RunPeriod: WHOLEYEAR,0.2687194285,0.1753483061,Pass,Pass,0.0000000000,0.0000000000,Pass,Pass
 Warmup Convergence Information,ROOFS4,RunPeriod: WHOLEYEAR,0.2087230129,0.1380842401,Pass,Pass,0.0000000000,0.0000000000,Pass,Pass
 Warmup Convergence Information,ROOFN0,RunPeriod: WHOLEYEAR,0.6301590738,0.7903377539,Pass,Pass,0.0000000000,0.0000000000,Pass,Pass
 Warmup Convergence Information,ROOFN3,RunPeriod: WHOLEYEAR,0.2387707884,0.1522578325,Pass,Pass,0.0000000000,0.0000000000,Pass,Pass
 Warmup Convergence Information,ROOFN1,RunPeriod: WHOLEYEAR,0.3012377864,0.3090861198,Pass,Pass,0.0000000000,0.0000000000,Pass,Pass
 Warmup Convergence Information,ROOFN2,RunPeriod: WHOLEYEAR,0.3761242447,0.3594370484,Pass,Pass,0.0000000000,0.0000000000,Pass,Pass
 Warmup Convergence Information,CORRINOR,RunPeriod: WHOLEYEAR,0.2813298364,0.3462955693,Pass,Pass,0.0000000000,0.0000000000,Pass,Pass
 Warmup Convergence Information,KITCHEN,RunPeriod: WHOLEYEAR,0.2492753158,0.2851805717,Pass,Pass,0.0000000000,0.0000000000,Pass,Pass
 Warmup Convergence Information,BAS,RunPeriod: WHOLEYEAR,0.2395553089,0.2758677017,Pass,Pass,0.0000000000,0.0000000000,Pass,Pass
 Warmup Convergence Information,STAIRNCOM,RunPeriod: WHOLEYEAR,0.2553201916,0.3202348800,Pass,Pass,0.0000000000,0.0000000000,Pass,Pass
 Warmup Convergence Information,CORRISOU,RunPeriod: WHOLEYEAR,0.2848874862,0.3882617906,Pass,Pass,0.0000000000,0.0000000000,Pass,Pass
 Warmup Convergence Information,OFF-YUJIE,RunPeriod: WHOLEYEAR,0.2539068776,0.3377771529,Pass,Pass,0.0000000000,0.0000000000,Pass,Pass
 Warmup Convergence Information,OFF-BAPP,RunPeriod: WHOLEYEAR,0.2568123420,0.3556560123,Fail,Pass,0.0000000000,0.0000000000,Pass,Pass
 Warmup Convergence Information,OFF-WEILI,RunPeriod: WHOLEYEAR,0.2545807510,0.3637928577,Pass,Pass,0.0000000000,0.0000000000,Pass,Pass
 Warmup Convergence Information,OFF-ZHIANG,RunPeriod: WHOLEYEAR,0.2748587076,0.3877262500,Fail,Pass,0.0000000000,0.0000000000,Pass,Pass
 Warmup Convergence Information,OFF-NINA,RunPeriod: WHOLEYEAR,0.3279360241,0.4157314465,Pass,Pass,0.0000000000,0.0000000000,Pass,Pass
 Warmup Convergence Information,OFF-VOLKER,RunPeriod: WHOLEYEAR,0.2884859339,0.2983896035,Pass,Pass,0.0000000000,0.0000000000,Pass,Pass
 Warmup Convergence Information,OFF-ERICA,RunPeriod: WHOLEYEAR,0.3319143561,0.3345174346,Fail,Pass,0.0000000000,0.0000000000,Pass,Pass
 Warmup Convergence Information,OFF-JAMES,RunPeriod: WHOLEYEAR,0.3078159103,0.3512482585,Fail,Pass,0.0000000000,0.0000000000,Pass,Pass
 Warmup Convergence Information,OFF-VIVIAN,RunPeriod: WHOLEYEAR,0.3004745249,0.3456054214,Fail,Pass,0.0000000000,0.0000000000,Pass,Pass
 Warmup Convergence Information,OFF-CHENLU,RunPeriod: WHOLEYEAR,0.3016841333,0.3389909430,Pass,Pass,0.0000000000,0.0000000000,Pass,Pass
 Warmup Convergence Information,OFF-OMER,RunPeriod: WHOLEYEAR,0.3229742782,0.3667174534,Fail,Pass,0.0000000000,0.0000000000,Pass,Pass
 Warmup Convergence Information,SMALLCONF,RunPeriod: WHOLEYEAR,0.3621964990,0.4294662194,Fail,Pass,0.0000000000,0.0000000000,Pass,Pass
 Warmup Convergence Information,LARGECONF1,RunPeriod: WHOLEYEAR,0.2815324666,0.3099155181,Fail,Pass,0.0000000000,0.0000000000,Pass,Pass
 Warmup Convergence Information,OFF-ANNIE,RunPeriod: WHOLEYEAR,0.2688003721,0.3118761014,Fail,Pass,0.0000000000,0.0000000000,Pass,Pass
 Warmup Convergence Information,LARGECONF0,RunPeriod: WHOLEYEAR,0.2578630036,0.3088786514,Pass,Pass,0.0000000000,0.0000000000,Pass,Pass
 Warmup Convergence Information,OFF-SUREKHA,RunPeriod: WHOLEYEAR,0.2508715814,0.2980273506,Pass,Pass,0.0000000000,0.0000000000,Pass,Pass
! <Program Control Information:Threads/Parallel Sims>, Threading Supported,Maximum Number of Threads, Env Set Threads (OMP_NUM_THREADS), EP Env Set Threads (EP_OMP_NUM_THREADS), IDF Set Threads, Number of Threads Used (Interior Radiant Exchange), Number Nominal Surfaces, Number Parallel Sims
Program Control:Threads/Parallel Sims, No,1, N/A, N/A, N/A, N/A, N/A, N/A
End of Data
